LAMMPS (19 Nov 2024)
units real
atom_style full
bond_style harmonic
angle_style harmonic
dihedral_style opls
improper_style cvff
special_bonds lj/coul 0 0 0.5
pair_style lj/cut 11.0
pair_modify mix geometric
read_data amorp_bldr.data
Reading data file ...
  orthogonal box = (0 0 0) to (159.3309 159.3309 159.3309)
  reading atoms ...
  100 atoms
Finding 1-2 1-3 1-4 neighbors ...
     0 = max # of 1-2 neighbors
     0 = max # of 1-3 neighbors
     0 = max # of 1-4 neighbors
     1 = max # of special neighbors

dump 1 all custom 1000 amorp_bldr.custom.gz id xu yu zu
dump_modify 1 sort id
min_style fire
minimize 1.0e-6 1.0e-8 1000000 10000000
Generated 0 of 0 mixed pair_coeff terms from geometric mixing rule
  Parameters for fire:
    dmax  delaystep dtgrow dtshrink alpha0 alphashrink tmax tmin   integrator   halfstepback   abcfire
     0.1     20      1.1     0.5     0.25     0.99      10  0.02 eulerimplicit      yes          no
Step          Temp          E_pair         E_mol          TotEng         Press
0   0             -0.060643321    0             -0.060643321   -0.0020368234
Loop time of 0.00331299 on 1 procs for 1021 steps with 100 atoms

Minimization stats:
  Stopping criterion = energy tolerance
  Energy initial, next-to-last, final =
  Force two-norm initial, final = 0.025977458 0.013867448
  Force max component initial, final = 0.0094137339 0.0072581782
  Final line search alpha, max atom move = 0 0
  Iterations, force evaluations = 1021 1026

timestep 1.0
thermo_modify flush yes
thermo 1000
velocity all create 10 1393622947
fix 2a all temp/berendsen 10 10 100
fix 2b all nve
run 100
Generated 0 of 0 mixed pair_coeff terms from geometric mixing rule
Step          Temp          E_pair         E_mol          TotEng         Press
1021   10            -1.1822374      0              1.7687646      0.033120651
Loop time of 0.00025495 on 1 procs for 100 steps with 100 atoms

unfix 2b
unfix 2a

fix 3a all temp/berendsen 10 300 100
fix 3b all nve
run 5000
Generated 0 of 0 mixed pair_coeff terms from geometric mixing rule
Step          Temp          E_pair         E_mol          TotEng         Press
1121   9.9712055     -1.1703368      0              1.7721678      0.034956856
Loop time of 0.0137963 on 1 procs for 5000 steps with 100 atoms

unfix 3b
unfix 3a

fix 4a all temp/berendsen 300 300 100
fix 4b all nve
run 5000
Generated 0 of 0 mixed pair_coeff terms from geometric mixing rule
Step          Temp          E_pair         E_mol          TotEng         Press
6121   294.06753     -0.60380264     0              86.175584      0.97157899
Loop time of 0.0135522 on 1 procs for 5000 steps with 100 atoms

unfix 4b
unfix 4a

dump_modify 1 every 4000

variable vol equal vol
variable amp equal 0.01*v_vol^(1/3)
variable immed_press python getPress
python getPress input 1 press_vol.data return v_immed_press format sf here "from nemd.lmpfunc import getPress"

variable immed_modulus python getModulus
python getModulus input 2 press_vol.data 100 return v_immed_modulus format sif here "from nemd.lmpfunc import getModulus"

variable factor python getBdryFactor
python getBdryFactor input 2 1 press_vol.data return v_factor format fsf here "from nemd.lmpfunc import getBdryFactor"

variable defm_id loop 0 999 pad
label defm_start
defm_id = 000
shell mkdir defm_000
shell cd defm_000

fix 17a all ave/time 1 10 10 c_thermo_press v_vol file press_vol.data
fix 17b all deform 100 x wiggle 1.593309 1000 y wiggle 1.593309 1000 z wiggle 1.593309 1000
fix 17c all temp/berendsen 300 300 100
fix 17d all nve
run 3000
Generated 0 of 0 mixed pair_coeff terms from geometric mixing rule
Step          Temp          E_pair         E_mol          TotEng         Press          Volume
11121   299.91478     -0.71402838     0              87.790881      0.99792038     4044827.7
Loop time of 0.0150021 on 1 procs for 3000 steps with 100 atoms

unfix 17d
unfix 17c
unfix 17b
unfix 17a

immed_press = 0.99842596
immed_modulus = 10
factor = 1
jump SELF defm_break
variable modulus equal 10
variable press equal 0.99842596
shell cd ..
variable vol delete
variable amp delete
variable immed_press delete
variable immed_modulus delete
variable factor delete
variable defm_id delete

dump_modify 1 every 1000

fix 40a all temp/berendsen 300 300 100
fix 40b all nve
run 10000
Generated 0 of 0 mixed pair_coeff terms from geometric mixing rule
Step          Temp          E_pair         E_mol          TotEng         Press
14121   299.9548      -0.44047258     0              88.076249      1.0008094
Averages over the last 6 of 12 rows, steps 20000 to 24121:
Temp E_pair E_mol TotEng Press
299.967 -0.543766 0 87.9764 1.00657
Loop time of 0.0264803 on 1 procs for 10000 steps with 100 atoms

unfix 40b
unfix 40a

fix 41a all press/berendsen iso 0.99842596 1 1000 modulus 10
fix 41b all temp/berendsen 300 300 100
fix 41c all nve
run 10000
Generated 0 of 0 mixed pair_coeff terms from geometric mixing rule
Step          Temp          E_pair         E_mol          TotEng         Press          Volume
24121   299.9862      -0.60782185     0              87.918164      1.0165839      4028884.1
Averages over the last 6 of 12 rows, steps 30000 to 34121:
Temp E_pair E_mol TotEng Press Volume
299.975 -0.546016 0 87.9768 1.0021 4.0387e+06
Loop time of 0.0447576 on 1 procs for 10000 steps with 100 atoms

unfix 41c
unfix 41b
unfix 41a

variable xl equal "xhi - xlo"
variable yl equal "yhi - ylo"
variable zl equal "zhi - zlo"
fix 42a all ave/time 1 1000 1000 v_xl v_yl v_zl file xyzl.data
fix 42b all press/berendsen iso 1.0 1 1000 modulus 10
fix 42c all temp/berendsen 300 300 100
fix 42d all nve
run 100000
Generated 0 of 0 mixed pair_coeff terms from geometric mixing rule
Step          Temp          E_pair         E_mol          TotEng         Press          Volume
34121   300.03793     -0.48134206     0              88.059911      1.0003379      4041103.1
Averages over the last 51 of 102 rows, steps 85000 to 134121:
Temp E_pair E_mol TotEng Press Volume
300.02 -0.493019 0 88.0431 0.998557 4.03303e+06
Loop time of 0.799404 on 1 procs for 100000 steps with 100 atoms

unfix 42d
unfix 42c
unfix 42b
unfix 42a

Final Boundary: xl = 159.161184949157, yl = 159.161184949157, zl = 159.161184949157
variable ave_xl python getXL
python getXL input 1 xyzl.data return v_ave_xl format sf here "from nemd.lmpfunc import getXL"
variable ave_yl python getYL
python getYL input 1 xyzl.data return v_ave_yl format sf here "from nemd.lmpfunc import getYL"
variable ave_zl python getZL
python getZL input 1 xyzl.data return v_ave_zl format sf here "from nemd.lmpfunc import getZL"
Averaged  xl = 159.1362 yl = 159.1362 zl = 159.1362

variable ave_xr equal "v_ave_xl / v_xl"
variable ave_yr equal "v_ave_yl / v_yl"
variable ave_zr equal "v_ave_zl / v_zl"
change_box all x scale 0.999843021091072 y scale 0.999843021091072 z scale 0.999843021091072 remap
Changing box ...
  orthogonal box = (0.09735 0.084857525 0.084857525) to (159.23355 159.24604 159.24604)
  orthogonal box = (0.09735 0.09735 0.084857525) to (159.23355 159.23355 159.24604)
  orthogonal box = (0.09735 0.09735 0.09735) to (159.23355 159.23355 159.23355)
variable ave_xr delete
variable ave_yr delete
variable ave_zr delete
variable ave_xl delete
variable ave_yl delete
variable ave_zl delete
variable xl delete
variable yl delete
variable zl delete

fix 44a all temp/berendsen 300 300 100
fix 44b all nve
run 1000
Generated 0 of 0 mixed pair_coeff terms from geometric mixing rule
Step          Temp          E_pair         E_mol          TotEng         Press
134121   300.00221     -0.28172213     0              88.248989      1.0015999
Loop time of 0.00277301 on 1 procs for 1000 steps with 100 atoms

unfix 44b
unfix 44a

fix 45a all temp/berendsen 300 300 100
fix 45b all nve
run 10000
Generated 0 of 0 mixed pair_coeff terms from geometric mixing rule
Step          Temp          E_pair         E_mol          TotEng         Press
135121   299.98416     -0.21645479     0              88.308931      1.000073
Averages over the last 6 of 12 rows, steps 141000 to 145121:
Temp E_pair E_mol TotEng Press
300.015 -0.281534 0 88.2528 1.00035
Loop time of 0.027955 on 1 procs for 10000 steps with 100 atoms

unfix 45b
unfix 45a

quit 0
