LAMMPS (19 Nov 2024)
units real
atom_style full
bond_style harmonic
angle_style harmonic
dihedral_style opls
improper_style cvff
special_bonds lj/coul 0 0 0.5
pair_style lj/cut 11.0
pair_modify mix geometric
read_data amorp_bldr.data
Reading data file ...
  orthogonal box = (0 0 0) to (159.3309 159.3309 159.3309)
  reading atoms ...
  100 atoms
Finding 1-2 1-3 1-4 neighbors ...
     0 = max # of 1-2 neighbors
     0 = max # of 1-3 neighbors
     0 = max # of 1-4 neighbors
     1 = max # of special neighbors

dump 1 all custom 1000 amorp_bldr.custom.gz id xu yu zu
dump_modify 1 sort id
min_style fire
minimize 1.0e-6 1.0e-8 1000000 10000000
Generated 0 of 0 mixed pair_coeff terms from geometric mixing rule
  Parameters for fire:
    dmax  delaystep dtgrow dtshrink alpha0 alphashrink tmax tmin   integrator   halfstepback   abcfire
     0.1     20      1.1     0.5     0.25     0.99      10  0.02 eulerimplicit      yes          no
Step          Temp          E_pair         E_mol          TotEng         Press
0   0             -0.073928095    0             -0.073928095   -0.0023892174
Loop time of 0.00706207 on 1 procs for 2240 steps with 100 atoms

Minimization stats:
  Stopping criterion = energy tolerance
  Energy initial, next-to-last, final =
  Force two-norm initial, final = 0.075389035 0.0074964279
  Force max component initial, final = 0.049471126 0.004542194
  Final line search alpha, max atom move = 0 0
  Iterations, force evaluations = 2240 2245

timestep 1.0
thermo_modify flush yes
thermo 1000
velocity all create 10 787576466
fix 2a all temp/berendsen 10 10 100
fix 2b all nve
run 100
Generated 0 of 0 mixed pair_coeff terms from geometric mixing rule
Step          Temp          E_pair         E_mol          TotEng         Press
2240   10            -1.1797123      0              1.7712897      0.033144852
Loop time of 0.000250564 on 1 procs for 100 steps with 100 atoms

unfix 2b
unfix 2a

fix 3a all temp/berendsen 10 300 100
fix 3b all nve
run 5000
Generated 0 of 0 mixed pair_coeff terms from geometric mixing rule
Step          Temp          E_pair         E_mol          TotEng         Press
2340   9.9812139     -1.1719785      0              1.7734797      0.029783265
Loop time of 0.0129368 on 1 procs for 5000 steps with 100 atoms

unfix 3b
unfix 3a

fix 4a all temp/berendsen 300 300 100
fix 4b all nve
run 5000
Generated 0 of 0 mixed pair_coeff terms from geometric mixing rule
Step          Temp          E_pair         E_mol          TotEng         Press
7340   294.22042     -0.5606326      0              86.26387       0.97236906
Loop time of 0.0135623 on 1 procs for 5000 steps with 100 atoms

unfix 4b
unfix 4a

dump_modify 1 every 4000

variable vol equal vol
variable amp equal 0.01*v_vol^(1/3)
variable immed_press python getPress
python getPress input 1 press_vol.data return v_immed_press format sf here "from nemd.lmpfunc import getPress"

variable immed_modulus python getModulus
python getModulus input 2 press_vol.data 100 return v_immed_modulus format sif here "from nemd.lmpfunc import getModulus"

variable factor python getBdryFactor
python getBdryFactor input 2 1 press_vol.data return v_factor format fsf here "from nemd.lmpfunc import getBdryFactor"

variable defm_id loop 0 999 pad
label defm_start
defm_id = 000
shell mkdir defm_000
shell cd defm_000

fix 17a all ave/time 1 10 10 c_thermo_press v_vol file press_vol.data
fix 17b all deform 100 x wiggle 1.593309 1000 y wiggle 1.593309 1000 z wiggle 1.593309 1000
fix 17c all temp/berendsen 300 300 100
fix 17d all nve
run 3000
Generated 0 of 0 mixed pair_coeff terms from geometric mixing rule
Step          Temp          E_pair         E_mol          TotEng         Press          Volume
12340   300.10099     -0.75838289     0              87.801477      0.99362999     4044827.7
Loop time of 0.0143787 on 1 procs for 3000 steps with 100 atoms

unfix 17d
unfix 17c
unfix 17b
unfix 17a

immed_press = 0.99277258
immed_modulus = 10
factor = 1
jump SELF defm_break
variable modulus equal 10
variable press equal 0.99277258
shell cd ..
variable vol delete
variable amp delete
variable immed_press delete
variable immed_modulus delete
variable factor delete
variable defm_id delete

dump_modify 1 every 1000

fix 40a all temp/berendsen 300 300 100
fix 40b all nve
run 10000
Generated 0 of 0 mixed pair_coeff terms from geometric mixing rule
Step          Temp          E_pair         E_mol          TotEng         Press
15340   299.97901     -0.5331637      0              87.990701      0.99553958
Averages over the last 6 of 12 rows, steps 21000 to 25340:
Temp E_pair E_mol TotEng Press
299.989 -0.604463 0 87.9225 1.00024
Loop time of 0.0260317 on 1 procs for 10000 steps with 100 atoms

unfix 40b
unfix 40a

fix 41a all press/berendsen iso 0.99277258 1 1000 modulus 10
fix 41b all temp/berendsen 300 300 100
fix 41c all nve
run 10000
Generated 0 of 0 mixed pair_coeff terms from geometric mixing rule
Step          Temp          E_pair         E_mol          TotEng         Press          Volume
25340   300.04967     -0.60016748     0              87.944548      0.99115565     4014725.5
Averages over the last 6 of 12 rows, steps 31000 to 35340:
Temp E_pair E_mol TotEng Press Volume
300.017 -0.473768 0 88.0612 1.00017 4.02614e+06
Loop time of 0.0430288 on 1 procs for 10000 steps with 100 atoms

unfix 41c
unfix 41b
unfix 41a

variable xl equal "xhi - xlo"
variable yl equal "yhi - ylo"
variable zl equal "zhi - zlo"
fix 42a all ave/time 1 1000 1000 v_xl v_yl v_zl file xyzl.data
fix 42b all press/berendsen iso 1.0 1 1000 modulus 10
fix 42c all temp/berendsen 300 300 100
fix 42d all nve
run 100000
Generated 0 of 0 mixed pair_coeff terms from geometric mixing rule
Step          Temp          E_pair         E_mol          TotEng         Press          Volume
35340   300.13558     -0.61542825     0              87.954639      0.99809431     4028518.8
Averages over the last 51 of 102 rows, steps 86000 to 135340:
Temp E_pair E_mol TotEng Press Volume
299.968 -0.313308 0 88.2072 0.999997 4.03946e+06
Loop time of 0.746201 on 1 procs for 100000 steps with 100 atoms

unfix 42d
unfix 42c
unfix 42b
unfix 42a

Final Boundary: xl = 159.259558482661, yl = 159.259558482661, zl = 159.259558482661
variable ave_xl python getXL
python getXL input 1 xyzl.data return v_ave_xl format sf here "from nemd.lmpfunc import getXL"
variable ave_yl python getYL
python getYL input 1 xyzl.data return v_ave_yl format sf here "from nemd.lmpfunc import getYL"
variable ave_zl python getZL
python getZL input 1 xyzl.data return v_ave_zl format sf here "from nemd.lmpfunc import getZL"
Averaged  xl = 159.2329 yl = 159.2329 zl = 159.2329

variable ave_xr equal "v_ave_xl / v_xl"
variable ave_yr equal "v_ave_yl / v_yl"
variable ave_zr equal "v_ave_zl / v_zl"
change_box all x scale 0.999832609841978 y scale 0.999832609841978 z scale 0.999832609841978 remap
Changing box ...
  orthogonal box = (0.049 0.035670759 0.035670759) to (159.2819 159.29523 159.29523)
  orthogonal box = (0.049 0.049 0.035670759) to (159.2819 159.2819 159.29523)
  orthogonal box = (0.049 0.049 0.049) to (159.2819 159.2819 159.2819)
variable ave_xr delete
variable ave_yr delete
variable ave_zr delete
variable ave_xl delete
variable ave_yl delete
variable ave_zl delete
variable xl delete
variable yl delete
variable zl delete

fix 44a all temp/berendsen 300 300 100
fix 44b all nve
run 1000
Generated 0 of 0 mixed pair_coeff terms from geometric mixing rule
Step          Temp          E_pair         E_mol          TotEng         Press
135340   300.0339      -0.2604137      0              88.27965       0.99925119
Loop time of 0.00271986 on 1 procs for 1000 steps with 100 atoms

unfix 44b
unfix 44a

fix 45a all temp/berendsen 300 300 100
fix 45b all nve
run 10000
Generated 0 of 0 mixed pair_coeff terms from geometric mixing rule
Step          Temp          E_pair         E_mol          TotEng         Press
136340   299.99914     -0.20636229     0              88.323443      0.99674432
Averages over the last 6 of 12 rows, steps 142000 to 146340:
Temp E_pair E_mol TotEng Press
299.89 -0.375524 0 88.1222 1.00484
Loop time of 0.0280459 on 1 procs for 10000 steps with 100 atoms

unfix 45b
unfix 45a

quit 0
