LAMMPS (19 Nov 2024)
package gpu 1
units metal
atom_style atomic
pair_style sw
read_data xtal_bldr.data
Reading data file ...
  triclinic box = (0 0 0) to (21.7228 21.7228 21.7228) with tilt (0 0 0)
  reading atoms ...
  512 atoms
pair_coeff * * /home/zhteg4/git/nemd/module/lammps/lammps/potentials/Si.sw Si
Reading sw potential file /home/zhteg4/git/nemd/module/lammps/lammps/potentials/Si.sw with DATE: 2007-06-11
dump 1 all xtc 1000 xtal_bldr.xtc
dump_modify 1 unwrap yes
thermo 1000
thermo_modify flush yes
timestep 0.001
min_style fire
minimize 1.0e-6 1.0e-6 1000 10000

CITE-CITE-CITE-CITE-CITE-CITE-CITE-CITE-CITE-CITE-CITE-CITE-CITE

Your simulation uses code contributions which should be cited:

- GPU package (short-range, long-range and three-body potentials): doi:10.1016/j.cpc.2010.12.021, doi:10.1016/j.cpc.2011.10.012, doi:10.1016/j.cpc.2013.08.002, doi:10.1016/j.commatsci.2014.10.068, doi:10.1016/j.cpc.2016.10.020, doi:10.3233/APC200086

@Article{Brown11,
 author = {W. M. Brown and P. Wang and S. J. Plimpton and A. N. Tharrington},
 title = {Implementing Molecular Dynamics on Hybrid High Performance Computers---Short Range Forces},
 journal = {Comput.\ Phys.\ Commun.},
 year =    2011,
 volume =  182,
 pages =   {898--911},
 doi =     {10.1016/j.cpc.2010.12.021}
}

@Article{Brown12,
 author = {W. M. Brown and A. Kohlmeyer and S. J. Plimpton and A. N. Tharrington},
 title = {Implementing Molecular Dynamics on Hybrid High Performance Computers - Particle-Particle Particle-Mesh},
 journal = {Comput.\ Phys.\ Commun.},
 year =    2012,
 volume =  183,
 doi =     {10.1016/j.cpc.2011.10.012},
 pages =   {449--459}
}

@Article{Brown13,
 author = {W. M. Brown and Y. Masako},
 title = {Implementing Molecular Dynamics on Hybrid High Performance Computers---Three-Body Potentials},
 journal = {Comput.\ Phys.\ Commun.},
 year =    2013,
 volume =  184,
 pages =   {2785--2793},
 doi =     {10.1016/j.cpc.2013.08.002},
}

@Article{Trung15,
 author = {T. D. Nguyen and S. J. Plimpton},
 title = {Accelerating Dissipative Particle Dynamics Simulations for Soft Matter Systems},
 journal = {Comput.\ Mater.\ Sci.},
 year =    2015,
 doi =     {10.1016/j.commatsci.2014.10.068},
 volume =  100,
 pages =   {173--180}
}

@Article{Trung17,
 author = {T. D. Nguyen},
 title = {{GPU}-Accelerated {T}ersoff Potentials for Massively Parallel
    Molecular Dynamics Simulations},
 journal = {Comput.\ Phys.\ Commun.},
 year =    2017,
 doi =     {10.1016/j.cpc.2016.10.020},
 volume =  212,
 pages =   {113--122}
}

@inproceedings{Nikolskiy19,
 author = {V. Nikolskiy and V. Stegailov},
 title = {{GPU} Acceleration of Four-Site Water Models in {LAMMPS}},
 booktitle = {Proceedings of the International Conference on Parallel
    Computing (ParCo 2019), Prague, Czech Republic},
 doi =     {10.3233/APC200086},
 year =    2019
}

CITE-CITE-CITE-CITE-CITE-CITE-CITE-CITE-CITE-CITE-CITE-CITE-CITE

  Parameters for fire:
    dmax  delaystep dtgrow dtshrink alpha0 alphashrink tmax tmin   integrator   halfstepback   abcfire
     0.1     20      1.1     0.5     0.25     0.99      10  0.02 eulerimplicit      yes          no
Step          Temp          E_pair         E_mol          TotEng         Press
0   0             -2220.3389      0             -2220.3389      140.01105
Loop time of 0.00199528 on 1 procs for 22 steps with 512 atoms

Minimization stats:
  Stopping criterion = energy tolerance
  Energy initial, next-to-last, final =
  Force two-norm initial, final = 0.025930434 0.0022514501
  Force max component initial, final = 0.00094566697 0.00013668988
  Final line search alpha, max atom move = 0 0
  Iterations, force evaluations = 22 23

velocity all create 10 928759161
fix 0a all nvt temp 10 10 0.1
run 1000
Step          Temp          E_pair         E_mol          TotEng         Press
22   10            -2220.3389      0             -2219.6783      208.94402
Loop time of 0.0768018 on 1 procs for 1000 steps with 512 atoms

unfix 0a

fix 1a all nvt temp 10 300.0 0.1
run 50000
Step          Temp          E_pair         E_mol          TotEng         Press
1022   8.6993404     -2219.6594      0             -2219.0848      256.88291
Averages over the last 26 of 52 rows, steps 27000 to 51022:
Temp E_pair E_mol TotEng Press
231.14 -2204.82 0 -2189.55 2891.65
Loop time of 3.93147 on 1 procs for 50000 steps with 512 atoms

unfix 1a

fix 2a all nvt temp 300.0 300.0 0.1
run 50000
Step          Temp          E_pair         E_mol          TotEng         Press
51022   266.77367     -2199.6401      0             -2182.0192      3320.611
Averages over the last 26 of 52 rows, steps 77000 to 101022:
Temp E_pair E_mol TotEng Press
304.862 -2200.41 0 -2180.27 3706.8
Loop time of 4.29419 on 1 procs for 50000 steps with 512 atoms

unfix 2a

shell mkdir loop
shell cd loop

variable loop_id loop 0 999 pad
label start_lb
loop_id=000
fix 3a all ave/time 1 20 20 c_thermo_press file 000
fix 3b all nvt temp 300.0 300.0 0.1
run 1000
Step          Temp          E_pair         E_mol          TotEng         Press
101022   294.49716     -2200.3203      0             -2180.8682      3690.3188
Loop time of 0.0986994 on 1 procs for 1000 steps with 512 atoms

unfix 3a
unfix 3b

variable fac python getBdryFac
python getBdryFac input 2 1 000 return v_fac format fsf here "from nemd.lmpfunc import getBdryFac"
fac=1.00166389657931
fix 4a all deform 10 x scale 1.00166389657931 y scale 1.00166389657931 z scale 1.00166389657931
fix 4b all nvt temp 300.0 300.0 0.1
run 500
Step          Temp          E_pair         E_mol          TotEng         Press          Volume
102022   318.63808     -2199.1844      0             -2178.1378      3925.0412      10250.556
Loop time of 0.0420042 on 1 procs for 500 steps with 512 atoms

unfix 4a
unfix 4b

fix 5a all nvt temp 300.0 300.0 0.1
run 500
Step          Temp          E_pair         E_mol          TotEng         Press
102522   303.08408     -2199.9385      0             -2179.9192     -1230.4242
Loop time of 0.0418056 on 1 procs for 500 steps with 512 atoms

unfix 5a

next loop_id
jump SELF start_lb
loop_id=001
fix 3a all ave/time 1 20 20 c_thermo_press file 001
fix 3b all nvt temp 300.0 300.0 0.1
run 1000
Step          Temp          E_pair         E_mol          TotEng         Press
103022   280.75997     -2199.0273      0             -2180.4826     -1434.175
Loop time of 0.0960154 on 1 procs for 1000 steps with 512 atoms

unfix 3a
unfix 3b

variable fac python getBdryFac
python getBdryFac input 2 1 001 return v_fac format fsf here "from nemd.lmpfunc import getBdryFac"
fac=0.998330547813691
fix 4a all deform 10 x scale 0.998330547813691 y scale 0.998330547813691 z scale 0.998330547813691
fix 4b all nvt temp 300.0 300.0 0.1
run 500
Step          Temp          E_pair         E_mol          TotEng         Press          Volume
104022   302.42212     -2201.1974      0             -2181.2219     -1379.5895      10301.603
Loop time of 0.0421666 on 1 procs for 500 steps with 512 atoms

unfix 4a
unfix 4b

fix 5a all nvt temp 300.0 300.0 0.1
run 500
Step          Temp          E_pair         E_mol          TotEng         Press
104522   302.2657      -2200.0569      0             -2180.0917      3787.4491
Loop time of 0.0420801 on 1 procs for 500 steps with 512 atoms

unfix 5a

next loop_id
jump SELF start_lb
loop_id=002
fix 3a all ave/time 1 20 20 c_thermo_press file 002
fix 3b all nvt temp 300.0 300.0 0.1
run 1000
Step          Temp          E_pair         E_mol          TotEng         Press
105022   291.09388     -2199.5385      0             -2180.3112      3632.585
Loop time of 0.0991497 on 1 procs for 1000 steps with 512 atoms

unfix 3a
unfix 3b

variable fac python getBdryFac
python getBdryFac input 2 1 002 return v_fac format fsf here "from nemd.lmpfunc import getBdryFac"
fac=1.00166389657931
fix 4a all deform 10 x scale 1.00166389657931 y scale 1.00166389657931 z scale 1.00166389657931
fix 4b all nvt temp 300.0 300.0 0.1
run 500
Step          Temp          E_pair         E_mol          TotEng         Press          Volume
106022   288.06421     -2201.5423      0             -2182.5151      3526.3828      10250.301
Loop time of 0.0420329 on 1 procs for 500 steps with 512 atoms

unfix 4a
unfix 4b

fix 5a all nvt temp 300.0 300.0 0.1
run 500
Step          Temp          E_pair         E_mol          TotEng         Press
106522   278.06929     -2199.5034      0             -2181.1363     -1272.5956
Loop time of 0.0420149 on 1 procs for 500 steps with 512 atoms

unfix 5a

next loop_id
jump SELF start_lb
loop_id=003
fix 3a all ave/time 1 20 20 c_thermo_press file 003
fix 3b all nvt temp 300.0 300.0 0.1
run 1000
Step          Temp          E_pair         E_mol          TotEng         Press
107022   285.81094     -2200.0578      0             -2181.1794     -1388.4123
Loop time of 0.0966349 on 1 procs for 1000 steps with 512 atoms

unfix 3a
unfix 3b

variable fac python getBdryFac
python getBdryFac input 2 1 003 return v_fac format fsf here "from nemd.lmpfunc import getBdryFac"
fac=0.998330547813691
fix 4a all deform 10 x scale 0.998330547813691 y scale 0.998330547813691 z scale 0.998330547813691
fix 4b all nvt temp 300.0 300.0 0.1
run 500
Step          Temp          E_pair         E_mol          TotEng         Press          Volume
108022   282.50195     -2198.0919      0             -2179.4321     -1312.6366      10301.347
Loop time of 0.0419552 on 1 procs for 500 steps with 512 atoms

unfix 4a
unfix 4b

fix 5a all nvt temp 300.0 300.0 0.1
run 500
Step          Temp          E_pair         E_mol          TotEng         Press
108522   288.90188     -2200.0105      0             -2180.928       3762.5059
Loop time of 0.0420309 on 1 procs for 500 steps with 512 atoms

unfix 5a

next loop_id
jump SELF start_lb
loop_id=004
fix 3a all ave/time 1 20 20 c_thermo_press file 004
fix 3b all nvt temp 300.0 300.0 0.1
run 1000
Step          Temp          E_pair         E_mol          TotEng         Press
109022   298.15334     -2200.4757      0             -2180.7821      3745.0406
Loop time of 0.0995737 on 1 procs for 1000 steps with 512 atoms

unfix 3a
unfix 3b

variable fac python getBdryFac
python getBdryFac input 2 1 004 return v_fac format fsf here "from nemd.lmpfunc import getBdryFac"
fac=1.00166389657931
fix 4a all deform 10 x scale 1.00166389657931 y scale 1.00166389657931 z scale 1.00166389657931
fix 4b all nvt temp 300.0 300.0 0.1
run 500
Step          Temp          E_pair         E_mol          TotEng         Press          Volume
110022   312.05498     -2199.0897      0             -2178.4778      4039.8021      10250.046
Loop time of 0.0420937 on 1 procs for 500 steps with 512 atoms

unfix 4a
unfix 4b

fix 5a all nvt temp 300.0 300.0 0.1
run 500
Step          Temp          E_pair         E_mol          TotEng         Press
110522   300.52996     -2199.4515      0             -2179.6009     -1136.45
Loop time of 0.0416681 on 1 procs for 500 steps with 512 atoms

unfix 5a

next loop_id
jump SELF start_lb
loop_id=005
fix 3a all ave/time 1 20 20 c_thermo_press file 005
fix 3b all nvt temp 300.0 300.0 0.1
run 1000
Step          Temp          E_pair         E_mol          TotEng         Press
111022   311.67359     -2201.5357      0             -2180.949      -1222.5975
Loop time of 0.0960325 on 1 procs for 1000 steps with 512 atoms

unfix 3a
unfix 3b

variable fac python getBdryFac
python getBdryFac input 2 1 005 return v_fac format fsf here "from nemd.lmpfunc import getBdryFac"
fac=0.998330547813691
fix 4a all deform 10 x scale 0.998330547813691 y scale 0.998330547813691 z scale 0.998330547813691
fix 4b all nvt temp 300.0 300.0 0.1
run 500
Step          Temp          E_pair         E_mol          TotEng         Press          Volume
112022   314.51383     -2200.2409      0             -2179.4667     -1058.5345      10301.091
Loop time of 0.0419974 on 1 procs for 500 steps with 512 atoms

unfix 4a
unfix 4b

fix 5a all nvt temp 300.0 300.0 0.1
run 500
Step          Temp          E_pair         E_mol          TotEng         Press
112522   297.41017     -2200.5763      0             -2180.9318      3761.063
Loop time of 0.0421108 on 1 procs for 500 steps with 512 atoms

unfix 5a

next loop_id
jump SELF start_lb
loop_id=006
fix 3a all ave/time 1 20 20 c_thermo_press file 006
fix 3b all nvt temp 300.0 300.0 0.1
run 1000
Step          Temp          E_pair         E_mol          TotEng         Press
113022   301.78373     -2200.5207      0             -2180.5873      3773.2511
Loop time of 0.100274 on 1 procs for 1000 steps with 512 atoms

unfix 3a
unfix 3b

variable fac python getBdryFac
python getBdryFac input 2 1 006 return v_fac format fsf here "from nemd.lmpfunc import getBdryFac"
fac=1.00166389657931
fix 4a all deform 10 x scale 1.00166389657931 y scale 1.00166389657931 z scale 1.00166389657931
fix 4b all nvt temp 300.0 300.0 0.1
run 500
Step          Temp          E_pair         E_mol          TotEng         Press          Volume
114022   317.77523     -2197.8837      0             -2176.894       4062.2712      10249.791
Loop time of 0.0431983 on 1 procs for 500 steps with 512 atoms

unfix 4a
unfix 4b

fix 5a all nvt temp 300.0 300.0 0.1
run 500
Step          Temp          E_pair         E_mol          TotEng         Press
114522   305.77253     -2201.3547      0             -2181.1579     -1270.5547
Loop time of 0.0418217 on 1 procs for 500 steps with 512 atoms

unfix 5a

next loop_id
jump SELF start_lb
loop_id=007
fix 3a all ave/time 1 20 20 c_thermo_press file 007
fix 3b all nvt temp 300.0 300.0 0.1
run 1000
Step          Temp          E_pair         E_mol          TotEng         Press
115022   304.90113     -2201.1039      0             -2180.9646     -1288.9589
Loop time of 0.0965525 on 1 procs for 1000 steps with 512 atoms

unfix 3a
unfix 3b

variable fac python getBdryFac
python getBdryFac input 2 1 007 return v_fac format fsf here "from nemd.lmpfunc import getBdryFac"
fac=0.998330547813691
fix 4a all deform 10 x scale 0.998330547813691 y scale 0.998330547813691 z scale 0.998330547813691
fix 4b all nvt temp 300.0 300.0 0.1
run 500
Step          Temp          E_pair         E_mol          TotEng         Press          Volume
116022   317.71557     -2199.9186      0             -2178.9329     -1116.1913      10300.835
Loop time of 0.0419633 on 1 procs for 500 steps with 512 atoms

unfix 4a
unfix 4b

fix 5a all nvt temp 300.0 300.0 0.1
run 500
Step          Temp          E_pair         E_mol          TotEng         Press
116522   298.82558     -2199.9389      0             -2180.2009      3786.6604
Loop time of 0.0420171 on 1 procs for 500 steps with 512 atoms

unfix 5a

next loop_id
jump SELF start_lb
loop_id=008
fix 3a all ave/time 1 20 20 c_thermo_press file 008
fix 3b all nvt temp 300.0 300.0 0.1
run 1000
Step          Temp          E_pair         E_mol          TotEng         Press
117022   300.0614      -2200.1237      0             -2180.3041      3666.202
Loop time of 0.0989254 on 1 procs for 1000 steps with 512 atoms

unfix 3a
unfix 3b

variable fac python getBdryFac
python getBdryFac input 2 1 008 return v_fac format fsf here "from nemd.lmpfunc import getBdryFac"
fac=1.00166389657931
fix 4a all deform 10 x scale 1.00166389657931 y scale 1.00166389657931 z scale 1.00166389657931
fix 4b all nvt temp 300.0 300.0 0.1
run 500
Step          Temp          E_pair         E_mol          TotEng         Press          Volume
118022   283.7077      -2201.2349      0             -2182.4955      3528.8747      10249.536
Loop time of 0.042022 on 1 procs for 500 steps with 512 atoms

unfix 4a
unfix 4b

fix 5a all nvt temp 300.0 300.0 0.1
run 500
Step          Temp          E_pair         E_mol          TotEng         Press
118522   291.73375     -2200.4413      0             -2181.1718     -1237.4501
Loop time of 0.0417741 on 1 procs for 500 steps with 512 atoms

unfix 5a

next loop_id
jump SELF start_lb
loop_id=009
fix 3a all ave/time 1 20 20 c_thermo_press file 009
fix 3b all nvt temp 300.0 300.0 0.1
run 1000
Step          Temp          E_pair         E_mol          TotEng         Press
119022   297.11452     -2199.5717      0             -2179.9467     -1299.1216
Loop time of 0.0965128 on 1 procs for 1000 steps with 512 atoms

unfix 3a
unfix 3b

variable fac python getBdryFac
python getBdryFac input 2 1 009 return v_fac format fsf here "from nemd.lmpfunc import getBdryFac"
fac=0.998330547813691
fix 4a all deform 10 x scale 0.998330547813691 y scale 0.998330547813691 z scale 0.998330547813691
fix 4b all nvt temp 300.0 300.0 0.1
run 500
Step          Temp          E_pair         E_mol          TotEng         Press          Volume
120022   286.57414     -2200.4512      0             -2181.5224     -1279.1578      10300.579
Loop time of 0.0424016 on 1 procs for 500 steps with 512 atoms

unfix 4a
unfix 4b

fix 5a all nvt temp 300.0 300.0 0.1
run 500
Step          Temp          E_pair         E_mol          TotEng         Press
120522   286.89349     -2199.4634      0             -2180.5136      3681.5815
Loop time of 0.0419357 on 1 procs for 500 steps with 512 atoms

unfix 5a

next loop_id
jump SELF start_lb
loop_id=010
fix 3a all ave/time 1 20 20 c_thermo_press file 010
fix 3b all nvt temp 300.0 300.0 0.1
run 1000
Step          Temp          E_pair         E_mol          TotEng         Press
121022   298.36318     -2200.5201      0             -2180.8127      3917.8182
Loop time of 0.0990663 on 1 procs for 1000 steps with 512 atoms

unfix 3a
unfix 3b

variable fac python getBdryFac
python getBdryFac input 2 1 010 return v_fac format fsf here "from nemd.lmpfunc import getBdryFac"
fac=1.00166389657931
fix 4a all deform 10 x scale 1.00166389657931 y scale 1.00166389657931 z scale 1.00166389657931
fix 4b all nvt temp 300.0 300.0 0.1
run 500
Step          Temp          E_pair         E_mol          TotEng         Press          Volume
122022   317.879       -2199.6175      0             -2178.6209      4010.7889      10249.281
Loop time of 0.0420039 on 1 procs for 500 steps with 512 atoms

unfix 4a
unfix 4b

fix 5a all nvt temp 300.0 300.0 0.1
run 500
Step          Temp          E_pair         E_mol          TotEng         Press
122522   298.63985     -2199.5387      0             -2179.813      -1209.669
Loop time of 0.0417728 on 1 procs for 500 steps with 512 atoms

unfix 5a

next loop_id
jump SELF start_lb
loop_id=011
fix 3a all ave/time 1 20 20 c_thermo_press file 011
fix 3b all nvt temp 300.0 300.0 0.1
run 1000
Step          Temp          E_pair         E_mol          TotEng         Press
123022   291.87593     -2199.9272      0             -2180.6482     -1256.6572
Loop time of 0.097524 on 1 procs for 1000 steps with 512 atoms

unfix 3a
unfix 3b

variable fac python getBdryFac
python getBdryFac input 2 1 011 return v_fac format fsf here "from nemd.lmpfunc import getBdryFac"
fac=0.998330547813691
fix 4a all deform 10 x scale 0.998330547813691 y scale 0.998330547813691 z scale 0.998330547813691
fix 4b all nvt temp 300.0 300.0 0.1
run 500
Step          Temp          E_pair         E_mol          TotEng         Press          Volume
124022   300.08013     -2198.626       0             -2178.8051     -1131.9786      10300.322
Loop time of 0.0421425 on 1 procs for 500 steps with 512 atoms

unfix 4a
unfix 4b

fix 5a all nvt temp 300.0 300.0 0.1
run 500
Step          Temp          E_pair         E_mol          TotEng         Press
124522   305.0408      -2200.1722      0             -2180.0237      3942.4234
Loop time of 0.0420689 on 1 procs for 500 steps with 512 atoms

unfix 5a

next loop_id
jump SELF start_lb
loop_id=012
fix 3a all ave/time 1 20 20 c_thermo_press file 012
fix 3b all nvt temp 300.0 300.0 0.1
run 1000
Loop time of 0.0989991 on 1 procs for 1000 steps with 512 atoms

unfix 3a
unfix 3b

variable fac python getBdryFac
python getBdryFac input 2 1 012 return v_fac format fsf here "from nemd.lmpfunc import getBdryFac"
fac=1.00166389657931
fix 4a all deform 10 x scale 1.00166389657931 y scale 1.00166389657931 z scale 1.00166389657931
fix 4b all nvt temp 300.0 300.0 0.1
run 500
Loop time of 0.0419429 on 1 procs for 500 steps with 512 atoms

unfix 4a
unfix 4b

fix 5a all nvt temp 300.0 300.0 0.1
run 500
Loop time of 0.0429607 on 1 procs for 500 steps with 512 atoms

unfix 5a

next loop_id
jump SELF start_lb
loop_id=013
fix 3a all ave/time 1 20 20 c_thermo_press file 013
fix 3b all nvt temp 300.0 300.0 0.1
run 1000
Loop time of 0.0959574 on 1 procs for 1000 steps with 512 atoms

unfix 3a
unfix 3b

variable fac python getBdryFac
python getBdryFac input 2 1 013 return v_fac format fsf here "from nemd.lmpfunc import getBdryFac"
fac=0.998330547813691
fix 4a all deform 10 x scale 0.998330547813691 y scale 0.998330547813691 z scale 0.998330547813691
fix 4b all nvt temp 300.0 300.0 0.1
run 500
Loop time of 0.0417711 on 1 procs for 500 steps with 512 atoms

unfix 4a
unfix 4b

fix 5a all nvt temp 300.0 300.0 0.1
run 500
Loop time of 0.0420278 on 1 procs for 500 steps with 512 atoms

unfix 5a

next loop_id
jump SELF start_lb
loop_id=014
fix 3a all ave/time 1 20 20 c_thermo_press file 014
fix 3b all nvt temp 300.0 300.0 0.1
run 1000
Loop time of 0.101437 on 1 procs for 1000 steps with 512 atoms

unfix 3a
unfix 3b

variable fac python getBdryFac
python getBdryFac input 2 1 014 return v_fac format fsf here "from nemd.lmpfunc import getBdryFac"
fac=1.00166389657931
fix 4a all deform 10 x scale 1.00166389657931 y scale 1.00166389657931 z scale 1.00166389657931
fix 4b all nvt temp 300.0 300.0 0.1
run 500
Loop time of 0.0421127 on 1 procs for 500 steps with 512 atoms

unfix 4a
unfix 4b

fix 5a all nvt temp 300.0 300.0 0.1
run 500
Loop time of 0.0415935 on 1 procs for 500 steps with 512 atoms

unfix 5a

next loop_id
jump SELF start_lb
loop_id=015
fix 3a all ave/time 1 20 20 c_thermo_press file 015
fix 3b all nvt temp 300.0 300.0 0.1
run 1000
Loop time of 0.0963257 on 1 procs for 1000 steps with 512 atoms

unfix 3a
unfix 3b

variable fac python getBdryFac
python getBdryFac input 2 1 015 return v_fac format fsf here "from nemd.lmpfunc import getBdryFac"
fac=0.998330547813691
fix 4a all deform 10 x scale 0.998330547813691 y scale 0.998330547813691 z scale 0.998330547813691
fix 4b all nvt temp 300.0 300.0 0.1
run 500
Loop time of 0.0419768 on 1 procs for 500 steps with 512 atoms

unfix 4a
unfix 4b

fix 5a all nvt temp 300.0 300.0 0.1
run 500
Loop time of 0.0420884 on 1 procs for 500 steps with 512 atoms

unfix 5a

next loop_id
jump SELF start_lb
loop_id=016
fix 3a all ave/time 1 20 20 c_thermo_press file 016
fix 3b all nvt temp 300.0 300.0 0.1
run 1000
Loop time of 0.10122 on 1 procs for 1000 steps with 512 atoms

unfix 3a
unfix 3b

variable fac python getBdryFac
python getBdryFac input 2 1 016 return v_fac format fsf here "from nemd.lmpfunc import getBdryFac"
fac=1.00166389657931
fix 4a all deform 10 x scale 1.00166389657931 y scale 1.00166389657931 z scale 1.00166389657931
fix 4b all nvt temp 300.0 300.0 0.1
run 500
Loop time of 0.0419768 on 1 procs for 500 steps with 512 atoms

unfix 4a
unfix 4b

fix 5a all nvt temp 300.0 300.0 0.1
run 500
Loop time of 0.041644 on 1 procs for 500 steps with 512 atoms

unfix 5a

next loop_id
jump SELF start_lb
loop_id=017
fix 3a all ave/time 1 20 20 c_thermo_press file 017
fix 3b all nvt temp 300.0 300.0 0.1
run 1000
Loop time of 0.096204 on 1 procs for 1000 steps with 512 atoms

unfix 3a
unfix 3b

variable fac python getBdryFac
python getBdryFac input 2 1 017 return v_fac format fsf here "from nemd.lmpfunc import getBdryFac"
fac=0.998330547813691
fix 4a all deform 10 x scale 0.998330547813691 y scale 0.998330547813691 z scale 0.998330547813691
fix 4b all nvt temp 300.0 300.0 0.1
run 500
Loop time of 0.0417831 on 1 procs for 500 steps with 512 atoms

unfix 4a
unfix 4b

fix 5a all nvt temp 300.0 300.0 0.1
run 500
Loop time of 0.0419117 on 1 procs for 500 steps with 512 atoms

unfix 5a

next loop_id
jump SELF start_lb
loop_id=018
fix 3a all ave/time 1 20 20 c_thermo_press file 018
fix 3b all nvt temp 300.0 300.0 0.1
run 1000
Loop time of 0.0990626 on 1 procs for 1000 steps with 512 atoms

unfix 3a
unfix 3b

variable fac python getBdryFac
python getBdryFac input 2 1 018 return v_fac format fsf here "from nemd.lmpfunc import getBdryFac"
fac=1.00166389657931
fix 4a all deform 10 x scale 1.00166389657931 y scale 1.00166389657931 z scale 1.00166389657931
fix 4b all nvt temp 300.0 300.0 0.1
run 500
Loop time of 0.0419634 on 1 procs for 500 steps with 512 atoms

unfix 4a
unfix 4b

fix 5a all nvt temp 300.0 300.0 0.1
run 500
Loop time of 0.0415147 on 1 procs for 500 steps with 512 atoms

unfix 5a

next loop_id
jump SELF start_lb
loop_id=019
fix 3a all ave/time 1 20 20 c_thermo_press file 019
fix 3b all nvt temp 300.0 300.0 0.1
run 1000
Loop time of 0.0979151 on 1 procs for 1000 steps with 512 atoms

unfix 3a
unfix 3b

variable fac python getBdryFac
python getBdryFac input 2 1 019 return v_fac format fsf here "from nemd.lmpfunc import getBdryFac"
fac=0.998330547813691
fix 4a all deform 10 x scale 0.998330547813691 y scale 0.998330547813691 z scale 0.998330547813691
fix 4b all nvt temp 300.0 300.0 0.1
run 500
Loop time of 0.041798 on 1 procs for 500 steps with 512 atoms

unfix 4a
unfix 4b

fix 5a all nvt temp 300.0 300.0 0.1
run 500
Loop time of 0.0417569 on 1 procs for 500 steps with 512 atoms

unfix 5a

next loop_id
jump SELF start_lb
loop_id=020
fix 3a all ave/time 1 20 20 c_thermo_press file 020
fix 3b all nvt temp 300.0 300.0 0.1
run 1000
Loop time of 0.100786 on 1 procs for 1000 steps with 512 atoms

unfix 3a
unfix 3b

variable fac python getBdryFac
python getBdryFac input 2 1 020 return v_fac format fsf here "from nemd.lmpfunc import getBdryFac"
fac=1.00166389657931
fix 4a all deform 10 x scale 1.00166389657931 y scale 1.00166389657931 z scale 1.00166389657931
fix 4b all nvt temp 300.0 300.0 0.1
run 500
Loop time of 0.0419803 on 1 procs for 500 steps with 512 atoms

unfix 4a
unfix 4b

fix 5a all nvt temp 300.0 300.0 0.1
run 500
Loop time of 0.0416129 on 1 procs for 500 steps with 512 atoms

unfix 5a

next loop_id
jump SELF start_lb
loop_id=021
fix 3a all ave/time 1 20 20 c_thermo_press file 021
fix 3b all nvt temp 300.0 300.0 0.1
run 1000
Loop time of 0.0966924 on 1 procs for 1000 steps with 512 atoms

unfix 3a
unfix 3b

variable fac python getBdryFac
python getBdryFac input 2 1 021 return v_fac format fsf here "from nemd.lmpfunc import getBdryFac"
fac=0.998330547813691
fix 4a all deform 10 x scale 0.998330547813691 y scale 0.998330547813691 z scale 0.998330547813691
fix 4b all nvt temp 300.0 300.0 0.1
run 500
Loop time of 0.041857 on 1 procs for 500 steps with 512 atoms

unfix 4a
unfix 4b

fix 5a all nvt temp 300.0 300.0 0.1
run 500
Loop time of 0.0418483 on 1 procs for 500 steps with 512 atoms

unfix 5a

next loop_id
jump SELF start_lb
loop_id=022
fix 3a all ave/time 1 20 20 c_thermo_press file 022
fix 3b all nvt temp 300.0 300.0 0.1
run 1000
Loop time of 0.101808 on 1 procs for 1000 steps with 512 atoms

unfix 3a
unfix 3b

variable fac python getBdryFac
python getBdryFac input 2 1 022 return v_fac format fsf here "from nemd.lmpfunc import getBdryFac"
fac=1.00166389657931
fix 4a all deform 10 x scale 1.00166389657931 y scale 1.00166389657931 z scale 1.00166389657931
fix 4b all nvt temp 300.0 300.0 0.1
run 500
Loop time of 0.0419572 on 1 procs for 500 steps with 512 atoms

unfix 4a
unfix 4b

fix 5a all nvt temp 300.0 300.0 0.1
run 500
Loop time of 0.0420578 on 1 procs for 500 steps with 512 atoms

unfix 5a

next loop_id
jump SELF start_lb
loop_id=023
fix 3a all ave/time 1 20 20 c_thermo_press file 023
fix 3b all nvt temp 300.0 300.0 0.1
run 1000
Loop time of 0.0969794 on 1 procs for 1000 steps with 512 atoms

unfix 3a
unfix 3b

variable fac python getBdryFac
python getBdryFac input 2 1 023 return v_fac format fsf here "from nemd.lmpfunc import getBdryFac"
fac=0.998330547813691
fix 4a all deform 10 x scale 0.998330547813691 y scale 0.998330547813691 z scale 0.998330547813691
fix 4b all nvt temp 300.0 300.0 0.1
run 500
Loop time of 0.0418843 on 1 procs for 500 steps with 512 atoms

unfix 4a
unfix 4b

fix 5a all nvt temp 300.0 300.0 0.1
run 500
Loop time of 0.0421375 on 1 procs for 500 steps with 512 atoms

unfix 5a

next loop_id
jump SELF start_lb
loop_id=024
fix 3a all ave/time 1 20 20 c_thermo_press file 024
fix 3b all nvt temp 300.0 300.0 0.1
run 1000
Loop time of 0.09949 on 1 procs for 1000 steps with 512 atoms

unfix 3a
unfix 3b

variable fac python getBdryFac
python getBdryFac input 2 1 024 return v_fac format fsf here "from nemd.lmpfunc import getBdryFac"
fac=1.00166389657931
fix 4a all deform 10 x scale 1.00166389657931 y scale 1.00166389657931 z scale 1.00166389657931
fix 4b all nvt temp 300.0 300.0 0.1
run 500
Loop time of 0.0419962 on 1 procs for 500 steps with 512 atoms

unfix 4a
unfix 4b

fix 5a all nvt temp 300.0 300.0 0.1
run 500
Loop time of 0.0416894 on 1 procs for 500 steps with 512 atoms

unfix 5a

next loop_id
jump SELF start_lb
loop_id=025
fix 3a all ave/time 1 20 20 c_thermo_press file 025
fix 3b all nvt temp 300.0 300.0 0.1
run 1000
Loop time of 0.0979493 on 1 procs for 1000 steps with 512 atoms

unfix 3a
unfix 3b

variable fac python getBdryFac
python getBdryFac input 2 1 025 return v_fac format fsf here "from nemd.lmpfunc import getBdryFac"
fac=0.998330547813691
fix 4a all deform 10 x scale 0.998330547813691 y scale 0.998330547813691 z scale 0.998330547813691
fix 4b all nvt temp 300.0 300.0 0.1
run 500
Loop time of 0.0417796 on 1 procs for 500 steps with 512 atoms

unfix 4a
unfix 4b

fix 5a all nvt temp 300.0 300.0 0.1
run 500
Loop time of 0.0420921 on 1 procs for 500 steps with 512 atoms

unfix 5a

next loop_id
jump SELF start_lb
loop_id=026
fix 3a all ave/time 1 20 20 c_thermo_press file 026
fix 3b all nvt temp 300.0 300.0 0.1
run 1000
Loop time of 0.0997805 on 1 procs for 1000 steps with 512 atoms

unfix 3a
unfix 3b

variable fac python getBdryFac
python getBdryFac input 2 1 026 return v_fac format fsf here "from nemd.lmpfunc import getBdryFac"
fac=1.00166389657931
fix 4a all deform 10 x scale 1.00166389657931 y scale 1.00166389657931 z scale 1.00166389657931
fix 4b all nvt temp 300.0 300.0 0.1
run 500
Loop time of 0.0420368 on 1 procs for 500 steps with 512 atoms

unfix 4a
unfix 4b

fix 5a all nvt temp 300.0 300.0 0.1
run 500
Loop time of 0.0416096 on 1 procs for 500 steps with 512 atoms

unfix 5a

next loop_id
jump SELF start_lb
loop_id=027
fix 3a all ave/time 1 20 20 c_thermo_press file 027
fix 3b all nvt temp 300.0 300.0 0.1
run 1000
Loop time of 0.098078 on 1 procs for 1000 steps with 512 atoms

unfix 3a
unfix 3b

variable fac python getBdryFac
python getBdryFac input 2 1 027 return v_fac format fsf here "from nemd.lmpfunc import getBdryFac"
fac=0.998330547813691
fix 4a all deform 10 x scale 0.998330547813691 y scale 0.998330547813691 z scale 0.998330547813691
fix 4b all nvt temp 300.0 300.0 0.1
run 500
Loop time of 0.0418587 on 1 procs for 500 steps with 512 atoms

unfix 4a
unfix 4b

fix 5a all nvt temp 300.0 300.0 0.1
run 500
Loop time of 0.0421116 on 1 procs for 500 steps with 512 atoms

unfix 5a

next loop_id
jump SELF start_lb
loop_id=028
fix 3a all ave/time 1 20 20 c_thermo_press file 028
fix 3b all nvt temp 300.0 300.0 0.1
run 1000
Loop time of 0.0996491 on 1 procs for 1000 steps with 512 atoms

unfix 3a
unfix 3b

variable fac python getBdryFac
python getBdryFac input 2 1 028 return v_fac format fsf here "from nemd.lmpfunc import getBdryFac"
fac=1.00166389657931
fix 4a all deform 10 x scale 1.00166389657931 y scale 1.00166389657931 z scale 1.00166389657931
fix 4b all nvt temp 300.0 300.0 0.1
run 500
Loop time of 0.0423615 on 1 procs for 500 steps with 512 atoms

unfix 4a
unfix 4b

fix 5a all nvt temp 300.0 300.0 0.1
run 500
Loop time of 0.0415914 on 1 procs for 500 steps with 512 atoms

unfix 5a

next loop_id
jump SELF start_lb
loop_id=029
fix 3a all ave/time 1 20 20 c_thermo_press file 029
fix 3b all nvt temp 300.0 300.0 0.1
run 1000
Loop time of 0.0969422 on 1 procs for 1000 steps with 512 atoms

unfix 3a
unfix 3b

variable fac python getBdryFac
python getBdryFac input 2 1 029 return v_fac format fsf here "from nemd.lmpfunc import getBdryFac"
fac=0.998330547813691
fix 4a all deform 10 x scale 0.998330547813691 y scale 0.998330547813691 z scale 0.998330547813691
fix 4b all nvt temp 300.0 300.0 0.1
run 500
Loop time of 0.0420009 on 1 procs for 500 steps with 512 atoms

unfix 4a
unfix 4b

fix 5a all nvt temp 300.0 300.0 0.1
run 500
Loop time of 0.0419682 on 1 procs for 500 steps with 512 atoms

unfix 5a

next loop_id
jump SELF start_lb
loop_id=030
fix 3a all ave/time 1 20 20 c_thermo_press file 030
fix 3b all nvt temp 300.0 300.0 0.1
run 1000
Loop time of 0.1014 on 1 procs for 1000 steps with 512 atoms

unfix 3a
unfix 3b

variable fac python getBdryFac
python getBdryFac input 2 1 030 return v_fac format fsf here "from nemd.lmpfunc import getBdryFac"
fac=1.00166389657931
fix 4a all deform 10 x scale 1.00166389657931 y scale 1.00166389657931 z scale 1.00166389657931
fix 4b all nvt temp 300.0 300.0 0.1
run 500
Loop time of 0.0421212 on 1 procs for 500 steps with 512 atoms

unfix 4a
unfix 4b

fix 5a all nvt temp 300.0 300.0 0.1
run 500
Loop time of 0.0417979 on 1 procs for 500 steps with 512 atoms

unfix 5a

next loop_id
jump SELF start_lb
loop_id=031
fix 3a all ave/time 1 20 20 c_thermo_press file 031
fix 3b all nvt temp 300.0 300.0 0.1
run 1000
Loop time of 0.0978559 on 1 procs for 1000 steps with 512 atoms

unfix 3a
unfix 3b

variable fac python getBdryFac
python getBdryFac input 2 1 031 return v_fac format fsf here "from nemd.lmpfunc import getBdryFac"
fac=0.998330547813691
fix 4a all deform 10 x scale 0.998330547813691 y scale 0.998330547813691 z scale 0.998330547813691
fix 4b all nvt temp 300.0 300.0 0.1
run 500
Loop time of 0.0431051 on 1 procs for 500 steps with 512 atoms

unfix 4a
unfix 4b

fix 5a all nvt temp 300.0 300.0 0.1
run 500
Loop time of 0.0419758 on 1 procs for 500 steps with 512 atoms

unfix 5a

next loop_id
jump SELF start_lb
loop_id=032
fix 3a all ave/time 1 20 20 c_thermo_press file 032
fix 3b all nvt temp 300.0 300.0 0.1
run 1000
Loop time of 0.100789 on 1 procs for 1000 steps with 512 atoms

unfix 3a
unfix 3b

variable fac python getBdryFac
python getBdryFac input 2 1 032 return v_fac format fsf here "from nemd.lmpfunc import getBdryFac"
fac=1.00166389657931
fix 4a all deform 10 x scale 1.00166389657931 y scale 1.00166389657931 z scale 1.00166389657931
fix 4b all nvt temp 300.0 300.0 0.1
run 500
Loop time of 0.0420509 on 1 procs for 500 steps with 512 atoms

unfix 4a
unfix 4b

fix 5a all nvt temp 300.0 300.0 0.1
run 500
Loop time of 0.0417687 on 1 procs for 500 steps with 512 atoms

unfix 5a

next loop_id
jump SELF start_lb
loop_id=033
fix 3a all ave/time 1 20 20 c_thermo_press file 033
fix 3b all nvt temp 300.0 300.0 0.1
run 1000
Loop time of 0.0970443 on 1 procs for 1000 steps with 512 atoms

unfix 3a
unfix 3b

variable fac python getBdryFac
python getBdryFac input 2 1 033 return v_fac format fsf here "from nemd.lmpfunc import getBdryFac"
fac=0.998330547813691
fix 4a all deform 10 x scale 0.998330547813691 y scale 0.998330547813691 z scale 0.998330547813691
fix 4b all nvt temp 300.0 300.0 0.1
run 500
Loop time of 0.0420638 on 1 procs for 500 steps with 512 atoms

unfix 4a
unfix 4b

fix 5a all nvt temp 300.0 300.0 0.1
run 500
Loop time of 0.0421514 on 1 procs for 500 steps with 512 atoms

unfix 5a

next loop_id
jump SELF start_lb
loop_id=034
fix 3a all ave/time 1 20 20 c_thermo_press file 034
fix 3b all nvt temp 300.0 300.0 0.1
run 1000
Loop time of 0.100766 on 1 procs for 1000 steps with 512 atoms

unfix 3a
unfix 3b

variable fac python getBdryFac
python getBdryFac input 2 1 034 return v_fac format fsf here "from nemd.lmpfunc import getBdryFac"
fac=1.00166389657931
fix 4a all deform 10 x scale 1.00166389657931 y scale 1.00166389657931 z scale 1.00166389657931
fix 4b all nvt temp 300.0 300.0 0.1
run 500
Loop time of 0.0420637 on 1 procs for 500 steps with 512 atoms

unfix 4a
unfix 4b

fix 5a all nvt temp 300.0 300.0 0.1
run 500
Loop time of 0.0428296 on 1 procs for 500 steps with 512 atoms

unfix 5a

next loop_id
jump SELF start_lb
loop_id=035
fix 3a all ave/time 1 20 20 c_thermo_press file 035
fix 3b all nvt temp 300.0 300.0 0.1
run 1000
Loop time of 0.0975041 on 1 procs for 1000 steps with 512 atoms

unfix 3a
unfix 3b

variable fac python getBdryFac
python getBdryFac input 2 1 035 return v_fac format fsf here "from nemd.lmpfunc import getBdryFac"
fac=0.998330547813691
fix 4a all deform 10 x scale 0.998330547813691 y scale 0.998330547813691 z scale 0.998330547813691
fix 4b all nvt temp 300.0 300.0 0.1
run 500
Loop time of 0.0420147 on 1 procs for 500 steps with 512 atoms

unfix 4a
unfix 4b

fix 5a all nvt temp 300.0 300.0 0.1
run 500
Loop time of 0.0419026 on 1 procs for 500 steps with 512 atoms

unfix 5a

next loop_id
jump SELF start_lb
loop_id=036
fix 3a all ave/time 1 20 20 c_thermo_press file 036
fix 3b all nvt temp 300.0 300.0 0.1
run 1000
Loop time of 0.100291 on 1 procs for 1000 steps with 512 atoms

unfix 3a
unfix 3b

variable fac python getBdryFac
python getBdryFac input 2 1 036 return v_fac format fsf here "from nemd.lmpfunc import getBdryFac"
fac=1.00166389657931
fix 4a all deform 10 x scale 1.00166389657931 y scale 1.00166389657931 z scale 1.00166389657931
fix 4b all nvt temp 300.0 300.0 0.1
run 500
Loop time of 0.0420713 on 1 procs for 500 steps with 512 atoms

unfix 4a
unfix 4b

fix 5a all nvt temp 300.0 300.0 0.1
run 500
Loop time of 0.0418218 on 1 procs for 500 steps with 512 atoms

unfix 5a

next loop_id
jump SELF start_lb
loop_id=037
fix 3a all ave/time 1 20 20 c_thermo_press file 037
fix 3b all nvt temp 300.0 300.0 0.1
run 1000
Loop time of 0.096973 on 1 procs for 1000 steps with 512 atoms

unfix 3a
unfix 3b

variable fac python getBdryFac
python getBdryFac input 2 1 037 return v_fac format fsf here "from nemd.lmpfunc import getBdryFac"
fac=0.998330547813691
fix 4a all deform 10 x scale 0.998330547813691 y scale 0.998330547813691 z scale 0.998330547813691
fix 4b all nvt temp 300.0 300.0 0.1
run 500
Loop time of 0.0417008 on 1 procs for 500 steps with 512 atoms

unfix 4a
unfix 4b

fix 5a all nvt temp 300.0 300.0 0.1
run 500
Loop time of 0.0432383 on 1 procs for 500 steps with 512 atoms

unfix 5a

next loop_id
jump SELF start_lb
loop_id=038
fix 3a all ave/time 1 20 20 c_thermo_press file 038
fix 3b all nvt temp 300.0 300.0 0.1
run 1000
Loop time of 0.100063 on 1 procs for 1000 steps with 512 atoms

unfix 3a
unfix 3b

variable fac python getBdryFac
python getBdryFac input 2 1 038 return v_fac format fsf here "from nemd.lmpfunc import getBdryFac"
fac=1.00166389657931
fix 4a all deform 10 x scale 1.00166389657931 y scale 1.00166389657931 z scale 1.00166389657931
fix 4b all nvt temp 300.0 300.0 0.1
run 500
Loop time of 0.0422459 on 1 procs for 500 steps with 512 atoms

unfix 4a
unfix 4b

fix 5a all nvt temp 300.0 300.0 0.1
run 500
Loop time of 0.0419674 on 1 procs for 500 steps with 512 atoms

unfix 5a

next loop_id
jump SELF start_lb
loop_id=039
fix 3a all ave/time 1 20 20 c_thermo_press file 039
fix 3b all nvt temp 300.0 300.0 0.1
run 1000
Loop time of 0.0973297 on 1 procs for 1000 steps with 512 atoms

unfix 3a
unfix 3b

variable fac python getBdryFac
python getBdryFac input 2 1 039 return v_fac format fsf here "from nemd.lmpfunc import getBdryFac"
fac=0.998330547813691
fix 4a all deform 10 x scale 0.998330547813691 y scale 0.998330547813691 z scale 0.998330547813691
fix 4b all nvt temp 300.0 300.0 0.1
run 500
Loop time of 0.0419339 on 1 procs for 500 steps with 512 atoms

unfix 4a
unfix 4b

fix 5a all nvt temp 300.0 300.0 0.1
run 500
Loop time of 0.0420574 on 1 procs for 500 steps with 512 atoms

unfix 5a

next loop_id
jump SELF start_lb
loop_id=040
fix 3a all ave/time 1 20 20 c_thermo_press file 040
fix 3b all nvt temp 300.0 300.0 0.1
run 1000
Loop time of 0.100252 on 1 procs for 1000 steps with 512 atoms

unfix 3a
unfix 3b

variable fac python getBdryFac
python getBdryFac input 2 1 040 return v_fac format fsf here "from nemd.lmpfunc import getBdryFac"
fac=1.00166389657931
fix 4a all deform 10 x scale 1.00166389657931 y scale 1.00166389657931 z scale 1.00166389657931
fix 4b all nvt temp 300.0 300.0 0.1
run 500
Loop time of 0.0420674 on 1 procs for 500 steps with 512 atoms

unfix 4a
unfix 4b

fix 5a all nvt temp 300.0 300.0 0.1
run 500
Loop time of 0.0419591 on 1 procs for 500 steps with 512 atoms

unfix 5a

next loop_id
jump SELF start_lb
loop_id=041
fix 3a all ave/time 1 20 20 c_thermo_press file 041
fix 3b all nvt temp 300.0 300.0 0.1
run 1000
Loop time of 0.0977186 on 1 procs for 1000 steps with 512 atoms

unfix 3a
unfix 3b

variable fac python getBdryFac
python getBdryFac input 2 1 041 return v_fac format fsf here "from nemd.lmpfunc import getBdryFac"
fac=0.998330547813691
fix 4a all deform 10 x scale 0.998330547813691 y scale 0.998330547813691 z scale 0.998330547813691
fix 4b all nvt temp 300.0 300.0 0.1
run 500
Loop time of 0.0417851 on 1 procs for 500 steps with 512 atoms

unfix 4a
unfix 4b

fix 5a all nvt temp 300.0 300.0 0.1
run 500
Loop time of 0.0421647 on 1 procs for 500 steps with 512 atoms

unfix 5a

next loop_id
jump SELF start_lb
loop_id=042
fix 3a all ave/time 1 20 20 c_thermo_press file 042
fix 3b all nvt temp 300.0 300.0 0.1
run 1000
Loop time of 0.0984467 on 1 procs for 1000 steps with 512 atoms

unfix 3a
unfix 3b

variable fac python getBdryFac
python getBdryFac input 2 1 042 return v_fac format fsf here "from nemd.lmpfunc import getBdryFac"
fac=1.00166389657931
fix 4a all deform 10 x scale 1.00166389657931 y scale 1.00166389657931 z scale 1.00166389657931
fix 4b all nvt temp 300.0 300.0 0.1
run 500
Loop time of 0.0421515 on 1 procs for 500 steps with 512 atoms

unfix 4a
unfix 4b

fix 5a all nvt temp 300.0 300.0 0.1
run 500
Loop time of 0.0420691 on 1 procs for 500 steps with 512 atoms

unfix 5a

next loop_id
jump SELF start_lb
loop_id=043
fix 3a all ave/time 1 20 20 c_thermo_press file 043
fix 3b all nvt temp 300.0 300.0 0.1
run 1000
Loop time of 0.0971268 on 1 procs for 1000 steps with 512 atoms

unfix 3a
unfix 3b

variable fac python getBdryFac
python getBdryFac input 2 1 043 return v_fac format fsf here "from nemd.lmpfunc import getBdryFac"
fac=0.998330547813691
fix 4a all deform 10 x scale 0.998330547813691 y scale 0.998330547813691 z scale 0.998330547813691
fix 4b all nvt temp 300.0 300.0 0.1
run 500
Loop time of 0.0416957 on 1 procs for 500 steps with 512 atoms

unfix 4a
unfix 4b

fix 5a all nvt temp 300.0 300.0 0.1
run 500
Loop time of 0.0419165 on 1 procs for 500 steps with 512 atoms

unfix 5a

next loop_id
jump SELF start_lb
loop_id=044
fix 3a all ave/time 1 20 20 c_thermo_press file 044
fix 3b all nvt temp 300.0 300.0 0.1
run 1000
Loop time of 0.100866 on 1 procs for 1000 steps with 512 atoms

unfix 3a
unfix 3b

variable fac python getBdryFac
python getBdryFac input 2 1 044 return v_fac format fsf here "from nemd.lmpfunc import getBdryFac"
fac=1.00166389657931
fix 4a all deform 10 x scale 1.00166389657931 y scale 1.00166389657931 z scale 1.00166389657931
fix 4b all nvt temp 300.0 300.0 0.1
run 500
Loop time of 0.0420653 on 1 procs for 500 steps with 512 atoms

unfix 4a
unfix 4b

fix 5a all nvt temp 300.0 300.0 0.1
run 500
Loop time of 0.0417496 on 1 procs for 500 steps with 512 atoms

unfix 5a

next loop_id
jump SELF start_lb
loop_id=045
fix 3a all ave/time 1 20 20 c_thermo_press file 045
fix 3b all nvt temp 300.0 300.0 0.1
run 1000
Loop time of 0.0968677 on 1 procs for 1000 steps with 512 atoms

unfix 3a
unfix 3b

variable fac python getBdryFac
python getBdryFac input 2 1 045 return v_fac format fsf here "from nemd.lmpfunc import getBdryFac"
fac=0.998330547813691
fix 4a all deform 10 x scale 0.998330547813691 y scale 0.998330547813691 z scale 0.998330547813691
fix 4b all nvt temp 300.0 300.0 0.1
run 500
Loop time of 0.0419431 on 1 procs for 500 steps with 512 atoms

unfix 4a
unfix 4b

fix 5a all nvt temp 300.0 300.0 0.1
run 500
Loop time of 0.042019 on 1 procs for 500 steps with 512 atoms

unfix 5a

next loop_id
jump SELF start_lb
loop_id=046
fix 3a all ave/time 1 20 20 c_thermo_press file 046
fix 3b all nvt temp 300.0 300.0 0.1
run 1000
Loop time of 0.099768 on 1 procs for 1000 steps with 512 atoms

unfix 3a
unfix 3b

variable fac python getBdryFac
python getBdryFac input 2 1 046 return v_fac format fsf here "from nemd.lmpfunc import getBdryFac"
fac=1.00166389657931
fix 4a all deform 10 x scale 1.00166389657931 y scale 1.00166389657931 z scale 1.00166389657931
fix 4b all nvt temp 300.0 300.0 0.1
run 500
Loop time of 0.0422255 on 1 procs for 500 steps with 512 atoms

unfix 4a
unfix 4b

fix 5a all nvt temp 300.0 300.0 0.1
run 500
Loop time of 0.0416357 on 1 procs for 500 steps with 512 atoms

unfix 5a

next loop_id
jump SELF start_lb
loop_id=047
fix 3a all ave/time 1 20 20 c_thermo_press file 047
fix 3b all nvt temp 300.0 300.0 0.1
run 1000
Loop time of 0.0996372 on 1 procs for 1000 steps with 512 atoms

unfix 3a
unfix 3b

variable fac python getBdryFac
python getBdryFac input 2 1 047 return v_fac format fsf here "from nemd.lmpfunc import getBdryFac"
fac=0.998330547813691
fix 4a all deform 10 x scale 0.998330547813691 y scale 0.998330547813691 z scale 0.998330547813691
fix 4b all nvt temp 300.0 300.0 0.1
run 500
Loop time of 0.0418412 on 1 procs for 500 steps with 512 atoms

unfix 4a
unfix 4b

fix 5a all nvt temp 300.0 300.0 0.1
run 500
Loop time of 0.0420367 on 1 procs for 500 steps with 512 atoms

unfix 5a

next loop_id
jump SELF start_lb
loop_id=048
fix 3a all ave/time 1 20 20 c_thermo_press file 048
fix 3b all nvt temp 300.0 300.0 0.1
run 1000
Loop time of 0.0995359 on 1 procs for 1000 steps with 512 atoms

unfix 3a
unfix 3b

variable fac python getBdryFac
python getBdryFac input 2 1 048 return v_fac format fsf here "from nemd.lmpfunc import getBdryFac"
fac=1.00166389657931
fix 4a all deform 10 x scale 1.00166389657931 y scale 1.00166389657931 z scale 1.00166389657931
fix 4b all nvt temp 300.0 300.0 0.1
run 500
Loop time of 0.0421243 on 1 procs for 500 steps with 512 atoms

unfix 4a
unfix 4b

fix 5a all nvt temp 300.0 300.0 0.1
run 500
Loop time of 0.0419772 on 1 procs for 500 steps with 512 atoms

unfix 5a

next loop_id
jump SELF start_lb
loop_id=049
fix 3a all ave/time 1 20 20 c_thermo_press file 049
fix 3b all nvt temp 300.0 300.0 0.1
run 1000
Loop time of 0.0978201 on 1 procs for 1000 steps with 512 atoms

unfix 3a
unfix 3b

variable fac python getBdryFac
python getBdryFac input 2 1 049 return v_fac format fsf here "from nemd.lmpfunc import getBdryFac"
fac=0.998330547813691
fix 4a all deform 10 x scale 0.998330547813691 y scale 0.998330547813691 z scale 0.998330547813691
fix 4b all nvt temp 300.0 300.0 0.1
run 500
Loop time of 0.042034 on 1 procs for 500 steps with 512 atoms

unfix 4a
unfix 4b

fix 5a all nvt temp 300.0 300.0 0.1
run 500
Loop time of 0.0421377 on 1 procs for 500 steps with 512 atoms

unfix 5a

next loop_id
jump SELF start_lb
loop_id=050
fix 3a all ave/time 1 20 20 c_thermo_press file 050
fix 3b all nvt temp 300.0 300.0 0.1
run 1000
Loop time of 0.0998495 on 1 procs for 1000 steps with 512 atoms

unfix 3a
unfix 3b

variable fac python getBdryFac
python getBdryFac input 2 1 050 return v_fac format fsf here "from nemd.lmpfunc import getBdryFac"
fac=1.00166389657931
fix 4a all deform 10 x scale 1.00166389657931 y scale 1.00166389657931 z scale 1.00166389657931
fix 4b all nvt temp 300.0 300.0 0.1
run 500
Loop time of 0.0421866 on 1 procs for 500 steps with 512 atoms

unfix 4a
unfix 4b

fix 5a all nvt temp 300.0 300.0 0.1
run 500
Loop time of 0.0418024 on 1 procs for 500 steps with 512 atoms

unfix 5a

next loop_id
jump SELF start_lb
loop_id=051
fix 3a all ave/time 1 20 20 c_thermo_press file 051
fix 3b all nvt temp 300.0 300.0 0.1
run 1000
Loop time of 0.0961444 on 1 procs for 1000 steps with 512 atoms

unfix 3a
unfix 3b

variable fac python getBdryFac
python getBdryFac input 2 1 051 return v_fac format fsf here "from nemd.lmpfunc import getBdryFac"
fac=0.998330547813691
fix 4a all deform 10 x scale 0.998330547813691 y scale 0.998330547813691 z scale 0.998330547813691
fix 4b all nvt temp 300.0 300.0 0.1
run 500
Loop time of 0.0421105 on 1 procs for 500 steps with 512 atoms

unfix 4a
unfix 4b

fix 5a all nvt temp 300.0 300.0 0.1
run 500
Loop time of 0.0420364 on 1 procs for 500 steps with 512 atoms

unfix 5a

next loop_id
jump SELF start_lb
loop_id=052
fix 3a all ave/time 1 20 20 c_thermo_press file 052
fix 3b all nvt temp 300.0 300.0 0.1
run 1000
Loop time of 0.100908 on 1 procs for 1000 steps with 512 atoms

unfix 3a
unfix 3b

variable fac python getBdryFac
python getBdryFac input 2 1 052 return v_fac format fsf here "from nemd.lmpfunc import getBdryFac"
fac=1.00166389657931
fix 4a all deform 10 x scale 1.00166389657931 y scale 1.00166389657931 z scale 1.00166389657931
fix 4b all nvt temp 300.0 300.0 0.1
run 500
Loop time of 0.0421461 on 1 procs for 500 steps with 512 atoms

unfix 4a
unfix 4b

fix 5a all nvt temp 300.0 300.0 0.1
run 500
Loop time of 0.0418291 on 1 procs for 500 steps with 512 atoms

unfix 5a

next loop_id
jump SELF start_lb
loop_id=053
fix 3a all ave/time 1 20 20 c_thermo_press file 053
fix 3b all nvt temp 300.0 300.0 0.1
run 1000
Loop time of 0.0968483 on 1 procs for 1000 steps with 512 atoms

unfix 3a
unfix 3b

variable fac python getBdryFac
python getBdryFac input 2 1 053 return v_fac format fsf here "from nemd.lmpfunc import getBdryFac"
fac=0.998330547813691
fix 4a all deform 10 x scale 0.998330547813691 y scale 0.998330547813691 z scale 0.998330547813691
fix 4b all nvt temp 300.0 300.0 0.1
run 500
Loop time of 0.0430329 on 1 procs for 500 steps with 512 atoms

unfix 4a
unfix 4b

fix 5a all nvt temp 300.0 300.0 0.1
run 500
Loop time of 0.0420271 on 1 procs for 500 steps with 512 atoms

unfix 5a

next loop_id
jump SELF start_lb
loop_id=054
fix 3a all ave/time 1 20 20 c_thermo_press file 054
fix 3b all nvt temp 300.0 300.0 0.1
run 1000
Loop time of 0.0997588 on 1 procs for 1000 steps with 512 atoms

unfix 3a
unfix 3b

variable fac python getBdryFac
python getBdryFac input 2 1 054 return v_fac format fsf here "from nemd.lmpfunc import getBdryFac"
fac=1.00166389657931
fix 4a all deform 10 x scale 1.00166389657931 y scale 1.00166389657931 z scale 1.00166389657931
fix 4b all nvt temp 300.0 300.0 0.1
run 500
Loop time of 0.0422226 on 1 procs for 500 steps with 512 atoms

unfix 4a
unfix 4b

fix 5a all nvt temp 300.0 300.0 0.1
run 500
Loop time of 0.0418052 on 1 procs for 500 steps with 512 atoms

unfix 5a

next loop_id
jump SELF start_lb
loop_id=055
fix 3a all ave/time 1 20 20 c_thermo_press file 055
fix 3b all nvt temp 300.0 300.0 0.1
run 1000
Loop time of 0.0979171 on 1 procs for 1000 steps with 512 atoms

unfix 3a
unfix 3b

variable fac python getBdryFac
python getBdryFac input 2 1 055 return v_fac format fsf here "from nemd.lmpfunc import getBdryFac"
fac=0.998330547813691
fix 4a all deform 10 x scale 0.998330547813691 y scale 0.998330547813691 z scale 0.998330547813691
fix 4b all nvt temp 300.0 300.0 0.1
run 500
Loop time of 0.0419527 on 1 procs for 500 steps with 512 atoms

unfix 4a
unfix 4b

fix 5a all nvt temp 300.0 300.0 0.1
run 500
Loop time of 0.0420641 on 1 procs for 500 steps with 512 atoms

unfix 5a

next loop_id
jump SELF start_lb
loop_id=056
fix 3a all ave/time 1 20 20 c_thermo_press file 056
fix 3b all nvt temp 300.0 300.0 0.1
run 1000
Loop time of 0.0994466 on 1 procs for 1000 steps with 512 atoms

unfix 3a
unfix 3b

variable fac python getBdryFac
python getBdryFac input 2 1 056 return v_fac format fsf here "from nemd.lmpfunc import getBdryFac"
fac=1.00166389657931
fix 4a all deform 10 x scale 1.00166389657931 y scale 1.00166389657931 z scale 1.00166389657931
fix 4b all nvt temp 300.0 300.0 0.1
run 500
Loop time of 0.0429498 on 1 procs for 500 steps with 512 atoms

unfix 4a
unfix 4b

fix 5a all nvt temp 300.0 300.0 0.1
run 500
Loop time of 0.0417696 on 1 procs for 500 steps with 512 atoms

unfix 5a

next loop_id
jump SELF start_lb
loop_id=057
fix 3a all ave/time 1 20 20 c_thermo_press file 057
fix 3b all nvt temp 300.0 300.0 0.1
run 1000
Loop time of 0.0972796 on 1 procs for 1000 steps with 512 atoms

unfix 3a
unfix 3b

variable fac python getBdryFac
python getBdryFac input 2 1 057 return v_fac format fsf here "from nemd.lmpfunc import getBdryFac"
fac=0.998330547813691
fix 4a all deform 10 x scale 0.998330547813691 y scale 0.998330547813691 z scale 0.998330547813691
fix 4b all nvt temp 300.0 300.0 0.1
run 500
Loop time of 0.0420843 on 1 procs for 500 steps with 512 atoms

unfix 4a
unfix 4b

fix 5a all nvt temp 300.0 300.0 0.1
run 500
Loop time of 0.0419652 on 1 procs for 500 steps with 512 atoms

unfix 5a

next loop_id
jump SELF start_lb
loop_id=058
fix 3a all ave/time 1 20 20 c_thermo_press file 058
fix 3b all nvt temp 300.0 300.0 0.1
run 1000
Loop time of 0.0995748 on 1 procs for 1000 steps with 512 atoms

unfix 3a
unfix 3b

variable fac python getBdryFac
python getBdryFac input 2 1 058 return v_fac format fsf here "from nemd.lmpfunc import getBdryFac"
fac=1.00166389657931
fix 4a all deform 10 x scale 1.00166389657931 y scale 1.00166389657931 z scale 1.00166389657931
fix 4b all nvt temp 300.0 300.0 0.1
run 500
Loop time of 0.0419991 on 1 procs for 500 steps with 512 atoms

unfix 4a
unfix 4b

fix 5a all nvt temp 300.0 300.0 0.1
run 500
Loop time of 0.042048 on 1 procs for 500 steps with 512 atoms

unfix 5a

next loop_id
jump SELF start_lb
loop_id=059
fix 3a all ave/time 1 20 20 c_thermo_press file 059
fix 3b all nvt temp 300.0 300.0 0.1
run 1000
Loop time of 0.0983837 on 1 procs for 1000 steps with 512 atoms

unfix 3a
unfix 3b

variable fac python getBdryFac
python getBdryFac input 2 1 059 return v_fac format fsf here "from nemd.lmpfunc import getBdryFac"
fac=0.998330547813691
fix 4a all deform 10 x scale 0.998330547813691 y scale 0.998330547813691 z scale 0.998330547813691
fix 4b all nvt temp 300.0 300.0 0.1
run 500
Loop time of 0.0417907 on 1 procs for 500 steps with 512 atoms

unfix 4a
unfix 4b

fix 5a all nvt temp 300.0 300.0 0.1
run 500
Loop time of 0.0431291 on 1 procs for 500 steps with 512 atoms

unfix 5a

next loop_id
jump SELF start_lb
loop_id=060
fix 3a all ave/time 1 20 20 c_thermo_press file 060
fix 3b all nvt temp 300.0 300.0 0.1
run 1000
Loop time of 0.100986 on 1 procs for 1000 steps with 512 atoms

unfix 3a
unfix 3b

variable fac python getBdryFac
python getBdryFac input 2 1 060 return v_fac format fsf here "from nemd.lmpfunc import getBdryFac"
fac=1.00166389657931
fix 4a all deform 10 x scale 1.00166389657931 y scale 1.00166389657931 z scale 1.00166389657931
fix 4b all nvt temp 300.0 300.0 0.1
run 500
Loop time of 0.0421898 on 1 procs for 500 steps with 512 atoms

unfix 4a
unfix 4b

fix 5a all nvt temp 300.0 300.0 0.1
run 500
Loop time of 0.0416053 on 1 procs for 500 steps with 512 atoms

unfix 5a

next loop_id
jump SELF start_lb
loop_id=061
fix 3a all ave/time 1 20 20 c_thermo_press file 061
fix 3b all nvt temp 300.0 300.0 0.1
run 1000
Loop time of 0.0965086 on 1 procs for 1000 steps with 512 atoms

unfix 3a
unfix 3b

variable fac python getBdryFac
python getBdryFac input 2 1 061 return v_fac format fsf here "from nemd.lmpfunc import getBdryFac"
fac=0.998330547813691
fix 4a all deform 10 x scale 0.998330547813691 y scale 0.998330547813691 z scale 0.998330547813691
fix 4b all nvt temp 300.0 300.0 0.1
run 500
Loop time of 0.0420659 on 1 procs for 500 steps with 512 atoms

unfix 4a
unfix 4b

fix 5a all nvt temp 300.0 300.0 0.1
run 500
Loop time of 0.0420283 on 1 procs for 500 steps with 512 atoms

unfix 5a

next loop_id
jump SELF start_lb
loop_id=062
fix 3a all ave/time 1 20 20 c_thermo_press file 062
fix 3b all nvt temp 300.0 300.0 0.1
run 1000
Loop time of 0.100094 on 1 procs for 1000 steps with 512 atoms

unfix 3a
unfix 3b

variable fac python getBdryFac
python getBdryFac input 2 1 062 return v_fac format fsf here "from nemd.lmpfunc import getBdryFac"
fac=1.00166389657931
fix 4a all deform 10 x scale 1.00166389657931 y scale 1.00166389657931 z scale 1.00166389657931
fix 4b all nvt temp 300.0 300.0 0.1
run 500
Loop time of 0.0419711 on 1 procs for 500 steps with 512 atoms

unfix 4a
unfix 4b

fix 5a all nvt temp 300.0 300.0 0.1
run 500
Loop time of 0.0426794 on 1 procs for 500 steps with 512 atoms

unfix 5a

next loop_id
jump SELF start_lb
loop_id=063
fix 3a all ave/time 1 20 20 c_thermo_press file 063
fix 3b all nvt temp 300.0 300.0 0.1
run 1000
Loop time of 0.0963377 on 1 procs for 1000 steps with 512 atoms

unfix 3a
unfix 3b

variable fac python getBdryFac
python getBdryFac input 2 1 063 return v_fac format fsf here "from nemd.lmpfunc import getBdryFac"
fac=0.998330547813691
fix 4a all deform 10 x scale 0.998330547813691 y scale 0.998330547813691 z scale 0.998330547813691
fix 4b all nvt temp 300.0 300.0 0.1
run 500
Loop time of 0.0419643 on 1 procs for 500 steps with 512 atoms

unfix 4a
unfix 4b

fix 5a all nvt temp 300.0 300.0 0.1
run 500
Loop time of 0.0420786 on 1 procs for 500 steps with 512 atoms

unfix 5a

next loop_id
jump SELF start_lb
loop_id=064
fix 3a all ave/time 1 20 20 c_thermo_press file 064
fix 3b all nvt temp 300.0 300.0 0.1
run 1000
Loop time of 0.0999908 on 1 procs for 1000 steps with 512 atoms

unfix 3a
unfix 3b

variable fac python getBdryFac
python getBdryFac input 2 1 064 return v_fac format fsf here "from nemd.lmpfunc import getBdryFac"
fac=1.00166389657931
fix 4a all deform 10 x scale 1.00166389657931 y scale 1.00166389657931 z scale 1.00166389657931
fix 4b all nvt temp 300.0 300.0 0.1
run 500
Loop time of 0.0422742 on 1 procs for 500 steps with 512 atoms

unfix 4a
unfix 4b

fix 5a all nvt temp 300.0 300.0 0.1
run 500
Loop time of 0.0418261 on 1 procs for 500 steps with 512 atoms

unfix 5a

next loop_id
jump SELF start_lb
loop_id=065
fix 3a all ave/time 1 20 20 c_thermo_press file 065
fix 3b all nvt temp 300.0 300.0 0.1
run 1000
Loop time of 0.123494 on 1 procs for 1000 steps with 512 atoms

unfix 3a
unfix 3b

variable fac python getBdryFac
python getBdryFac input 2 1 065 return v_fac format fsf here "from nemd.lmpfunc import getBdryFac"
fac=0.998330547813691
fix 4a all deform 10 x scale 0.998330547813691 y scale 0.998330547813691 z scale 0.998330547813691
fix 4b all nvt temp 300.0 300.0 0.1
run 500
Loop time of 0.04375 on 1 procs for 500 steps with 512 atoms

unfix 4a
unfix 4b

fix 5a all nvt temp 300.0 300.0 0.1
run 500
Loop time of 0.043048 on 1 procs for 500 steps with 512 atoms

unfix 5a

next loop_id
jump SELF start_lb
loop_id=066
fix 3a all ave/time 1 20 20 c_thermo_press file 066
fix 3b all nvt temp 300.0 300.0 0.1
run 1000
Loop time of 0.102576 on 1 procs for 1000 steps with 512 atoms

unfix 3a
unfix 3b

variable fac python getBdryFac
python getBdryFac input 2 1 066 return v_fac format fsf here "from nemd.lmpfunc import getBdryFac"
fac=1.00166389657931
fix 4a all deform 10 x scale 1.00166389657931 y scale 1.00166389657931 z scale 1.00166389657931
fix 4b all nvt temp 300.0 300.0 0.1
run 500
Loop time of 0.0435536 on 1 procs for 500 steps with 512 atoms

unfix 4a
unfix 4b

fix 5a all nvt temp 300.0 300.0 0.1
run 500
Loop time of 0.0488736 on 1 procs for 500 steps with 512 atoms

unfix 5a

next loop_id
jump SELF start_lb
loop_id=067
fix 3a all ave/time 1 20 20 c_thermo_press file 067
fix 3b all nvt temp 300.0 300.0 0.1
run 1000
Loop time of 0.112791 on 1 procs for 1000 steps with 512 atoms

unfix 3a
unfix 3b

variable fac python getBdryFac
python getBdryFac input 2 1 067 return v_fac format fsf here "from nemd.lmpfunc import getBdryFac"
fac=0.998330547813691
fix 4a all deform 10 x scale 0.998330547813691 y scale 0.998330547813691 z scale 0.998330547813691
fix 4b all nvt temp 300.0 300.0 0.1
run 500
Loop time of 0.0483431 on 1 procs for 500 steps with 512 atoms

unfix 4a
unfix 4b

fix 5a all nvt temp 300.0 300.0 0.1
run 500
Loop time of 0.0511829 on 1 procs for 500 steps with 512 atoms

unfix 5a

next loop_id
jump SELF start_lb
loop_id=068
fix 3a all ave/time 1 20 20 c_thermo_press file 068
fix 3b all nvt temp 300.0 300.0 0.1
run 1000
Loop time of 0.113864 on 1 procs for 1000 steps with 512 atoms

unfix 3a
unfix 3b

variable fac python getBdryFac
python getBdryFac input 2 1 068 return v_fac format fsf here "from nemd.lmpfunc import getBdryFac"
fac=1.00166389657931
fix 4a all deform 10 x scale 1.00166389657931 y scale 1.00166389657931 z scale 1.00166389657931
fix 4b all nvt temp 300.0 300.0 0.1
run 500
Loop time of 0.0496549 on 1 procs for 500 steps with 512 atoms

unfix 4a
unfix 4b

fix 5a all nvt temp 300.0 300.0 0.1
run 500
Loop time of 0.0463607 on 1 procs for 500 steps with 512 atoms

unfix 5a

next loop_id
jump SELF start_lb
loop_id=069
fix 3a all ave/time 1 20 20 c_thermo_press file 069
fix 3b all nvt temp 300.0 300.0 0.1
run 1000
Loop time of 0.114732 on 1 procs for 1000 steps with 512 atoms

unfix 3a
unfix 3b

variable fac python getBdryFac
python getBdryFac input 2 1 069 return v_fac format fsf here "from nemd.lmpfunc import getBdryFac"
fac=0.998330547813691
fix 4a all deform 10 x scale 0.998330547813691 y scale 0.998330547813691 z scale 0.998330547813691
fix 4b all nvt temp 300.0 300.0 0.1
run 500
Loop time of 0.0499401 on 1 procs for 500 steps with 512 atoms

unfix 4a
unfix 4b

fix 5a all nvt temp 300.0 300.0 0.1
run 500
Loop time of 0.0465769 on 1 procs for 500 steps with 512 atoms

unfix 5a

next loop_id
jump SELF start_lb
loop_id=070
fix 3a all ave/time 1 20 20 c_thermo_press file 070
fix 3b all nvt temp 300.0 300.0 0.1
run 1000
Loop time of 0.104621 on 1 procs for 1000 steps with 512 atoms

unfix 3a
unfix 3b

variable fac python getBdryFac
python getBdryFac input 2 1 070 return v_fac format fsf here "from nemd.lmpfunc import getBdryFac"
fac=1.00166389657931
fix 4a all deform 10 x scale 1.00166389657931 y scale 1.00166389657931 z scale 1.00166389657931
fix 4b all nvt temp 300.0 300.0 0.1
run 500
Loop time of 0.0425021 on 1 procs for 500 steps with 512 atoms

unfix 4a
unfix 4b

fix 5a all nvt temp 300.0 300.0 0.1
run 500
Loop time of 0.0417214 on 1 procs for 500 steps with 512 atoms

unfix 5a

next loop_id
jump SELF start_lb
loop_id=071
fix 3a all ave/time 1 20 20 c_thermo_press file 071
fix 3b all nvt temp 300.0 300.0 0.1
run 1000
Loop time of 0.098037 on 1 procs for 1000 steps with 512 atoms

unfix 3a
unfix 3b

variable fac python getBdryFac
python getBdryFac input 2 1 071 return v_fac format fsf here "from nemd.lmpfunc import getBdryFac"
fac=0.998330547813691
fix 4a all deform 10 x scale 0.998330547813691 y scale 0.998330547813691 z scale 0.998330547813691
fix 4b all nvt temp 300.0 300.0 0.1
run 500
Loop time of 0.0419384 on 1 procs for 500 steps with 512 atoms

unfix 4a
unfix 4b

fix 5a all nvt temp 300.0 300.0 0.1
run 500
Loop time of 0.044969 on 1 procs for 500 steps with 512 atoms

unfix 5a

next loop_id
jump SELF start_lb
loop_id=072
fix 3a all ave/time 1 20 20 c_thermo_press file 072
fix 3b all nvt temp 300.0 300.0 0.1
run 1000
Loop time of 0.101234 on 1 procs for 1000 steps with 512 atoms

unfix 3a
unfix 3b

variable fac python getBdryFac
python getBdryFac input 2 1 072 return v_fac format fsf here "from nemd.lmpfunc import getBdryFac"
fac=1.00166389657931
fix 4a all deform 10 x scale 1.00166389657931 y scale 1.00166389657931 z scale 1.00166389657931
fix 4b all nvt temp 300.0 300.0 0.1
run 500
Loop time of 0.0421037 on 1 procs for 500 steps with 512 atoms

unfix 4a
unfix 4b

fix 5a all nvt temp 300.0 300.0 0.1
run 500
Loop time of 0.0419654 on 1 procs for 500 steps with 512 atoms

unfix 5a

next loop_id
jump SELF start_lb
loop_id=073
fix 3a all ave/time 1 20 20 c_thermo_press file 073
fix 3b all nvt temp 300.0 300.0 0.1
run 1000
Loop time of 0.0984027 on 1 procs for 1000 steps with 512 atoms

unfix 3a
unfix 3b

variable fac python getBdryFac
python getBdryFac input 2 1 073 return v_fac format fsf here "from nemd.lmpfunc import getBdryFac"
fac=0.998330547813691
fix 4a all deform 10 x scale 0.998330547813691 y scale 0.998330547813691 z scale 0.998330547813691
fix 4b all nvt temp 300.0 300.0 0.1
run 500
Loop time of 0.042133 on 1 procs for 500 steps with 512 atoms

unfix 4a
unfix 4b

fix 5a all nvt temp 300.0 300.0 0.1
run 500
Loop time of 0.0420526 on 1 procs for 500 steps with 512 atoms

unfix 5a

next loop_id
jump SELF start_lb
loop_id=074
fix 3a all ave/time 1 20 20 c_thermo_press file 074
fix 3b all nvt temp 300.0 300.0 0.1
run 1000
Loop time of 0.101091 on 1 procs for 1000 steps with 512 atoms

unfix 3a
unfix 3b

variable fac python getBdryFac
python getBdryFac input 2 1 074 return v_fac format fsf here "from nemd.lmpfunc import getBdryFac"
fac=1.00166389657931
fix 4a all deform 10 x scale 1.00166389657931 y scale 1.00166389657931 z scale 1.00166389657931
fix 4b all nvt temp 300.0 300.0 0.1
run 500
Loop time of 0.0421088 on 1 procs for 500 steps with 512 atoms

unfix 4a
unfix 4b

fix 5a all nvt temp 300.0 300.0 0.1
run 500
Loop time of 0.0417327 on 1 procs for 500 steps with 512 atoms

unfix 5a

next loop_id
jump SELF start_lb
loop_id=075
fix 3a all ave/time 1 20 20 c_thermo_press file 075
fix 3b all nvt temp 300.0 300.0 0.1
run 1000
Loop time of 0.0955285 on 1 procs for 1000 steps with 512 atoms

unfix 3a
unfix 3b

variable fac python getBdryFac
python getBdryFac input 2 1 075 return v_fac format fsf here "from nemd.lmpfunc import getBdryFac"
fac=0.998330547813691
fix 4a all deform 10 x scale 0.998330547813691 y scale 0.998330547813691 z scale 0.998330547813691
fix 4b all nvt temp 300.0 300.0 0.1
run 500
Loop time of 0.0420655 on 1 procs for 500 steps with 512 atoms

unfix 4a
unfix 4b

fix 5a all nvt temp 300.0 300.0 0.1
run 500
Loop time of 0.0419381 on 1 procs for 500 steps with 512 atoms

unfix 5a

next loop_id
jump SELF start_lb
loop_id=076
fix 3a all ave/time 1 20 20 c_thermo_press file 076
fix 3b all nvt temp 300.0 300.0 0.1
run 1000
Loop time of 0.100909 on 1 procs for 1000 steps with 512 atoms

unfix 3a
unfix 3b

variable fac python getBdryFac
python getBdryFac input 2 1 076 return v_fac format fsf here "from nemd.lmpfunc import getBdryFac"
fac=1.00166389657931
fix 4a all deform 10 x scale 1.00166389657931 y scale 1.00166389657931 z scale 1.00166389657931
fix 4b all nvt temp 300.0 300.0 0.1
run 500
Loop time of 0.0421948 on 1 procs for 500 steps with 512 atoms

unfix 4a
unfix 4b

fix 5a all nvt temp 300.0 300.0 0.1
run 500
Loop time of 0.0419775 on 1 procs for 500 steps with 512 atoms

unfix 5a

next loop_id
jump SELF start_lb
loop_id=077
fix 3a all ave/time 1 20 20 c_thermo_press file 077
fix 3b all nvt temp 300.0 300.0 0.1
run 1000
Loop time of 0.0962816 on 1 procs for 1000 steps with 512 atoms

unfix 3a
unfix 3b

variable fac python getBdryFac
python getBdryFac input 2 1 077 return v_fac format fsf here "from nemd.lmpfunc import getBdryFac"
fac=0.998330547813691
fix 4a all deform 10 x scale 0.998330547813691 y scale 0.998330547813691 z scale 0.998330547813691
fix 4b all nvt temp 300.0 300.0 0.1
run 500
Loop time of 0.0431336 on 1 procs for 500 steps with 512 atoms

unfix 4a
unfix 4b

fix 5a all nvt temp 300.0 300.0 0.1
run 500
Loop time of 0.0420109 on 1 procs for 500 steps with 512 atoms

unfix 5a

next loop_id
jump SELF start_lb
loop_id=078
fix 3a all ave/time 1 20 20 c_thermo_press file 078
fix 3b all nvt temp 300.0 300.0 0.1
run 1000
Loop time of 0.100275 on 1 procs for 1000 steps with 512 atoms

unfix 3a
unfix 3b

variable fac python getBdryFac
python getBdryFac input 2 1 078 return v_fac format fsf here "from nemd.lmpfunc import getBdryFac"
fac=1.00166389657931
fix 4a all deform 10 x scale 1.00166389657931 y scale 1.00166389657931 z scale 1.00166389657931
fix 4b all nvt temp 300.0 300.0 0.1
run 500
Loop time of 0.0420876 on 1 procs for 500 steps with 512 atoms

unfix 4a
unfix 4b

fix 5a all nvt temp 300.0 300.0 0.1
run 500
Loop time of 0.0418223 on 1 procs for 500 steps with 512 atoms

unfix 5a

next loop_id
jump SELF start_lb
loop_id=079
fix 3a all ave/time 1 20 20 c_thermo_press file 079
fix 3b all nvt temp 300.0 300.0 0.1
run 1000
Loop time of 0.0968048 on 1 procs for 1000 steps with 512 atoms

unfix 3a
unfix 3b

variable fac python getBdryFac
python getBdryFac input 2 1 079 return v_fac format fsf here "from nemd.lmpfunc import getBdryFac"
fac=0.998330547813691
fix 4a all deform 10 x scale 0.998330547813691 y scale 0.998330547813691 z scale 0.998330547813691
fix 4b all nvt temp 300.0 300.0 0.1
run 500
Loop time of 0.0421573 on 1 procs for 500 steps with 512 atoms

unfix 4a
unfix 4b

fix 5a all nvt temp 300.0 300.0 0.1
run 500
Loop time of 0.0421503 on 1 procs for 500 steps with 512 atoms

unfix 5a

next loop_id
jump SELF start_lb
loop_id=080
fix 3a all ave/time 1 20 20 c_thermo_press file 080
fix 3b all nvt temp 300.0 300.0 0.1
run 1000
Loop time of 0.100918 on 1 procs for 1000 steps with 512 atoms

unfix 3a
unfix 3b

variable fac python getBdryFac
python getBdryFac input 2 1 080 return v_fac format fsf here "from nemd.lmpfunc import getBdryFac"
fac=1.00166389657931
fix 4a all deform 10 x scale 1.00166389657931 y scale 1.00166389657931 z scale 1.00166389657931
fix 4b all nvt temp 300.0 300.0 0.1
run 500
Loop time of 0.0428922 on 1 procs for 500 steps with 512 atoms

unfix 4a
unfix 4b

fix 5a all nvt temp 300.0 300.0 0.1
run 500
Loop time of 0.0421716 on 1 procs for 500 steps with 512 atoms

unfix 5a

next loop_id
jump SELF start_lb
loop_id=081
fix 3a all ave/time 1 20 20 c_thermo_press file 081
fix 3b all nvt temp 300.0 300.0 0.1
run 1000
Loop time of 0.0973515 on 1 procs for 1000 steps with 512 atoms

unfix 3a
unfix 3b

variable fac python getBdryFac
python getBdryFac input 2 1 081 return v_fac format fsf here "from nemd.lmpfunc import getBdryFac"
fac=0.998330547813691
fix 4a all deform 10 x scale 0.998330547813691 y scale 0.998330547813691 z scale 0.998330547813691
fix 4b all nvt temp 300.0 300.0 0.1
run 500
Loop time of 0.0420429 on 1 procs for 500 steps with 512 atoms

unfix 4a
unfix 4b

fix 5a all nvt temp 300.0 300.0 0.1
run 500
Loop time of 0.0420163 on 1 procs for 500 steps with 512 atoms

unfix 5a

next loop_id
jump SELF start_lb
loop_id=082
fix 3a all ave/time 1 20 20 c_thermo_press file 082
fix 3b all nvt temp 300.0 300.0 0.1
run 1000
Loop time of 0.100117 on 1 procs for 1000 steps with 512 atoms

unfix 3a
unfix 3b

variable fac python getBdryFac
python getBdryFac input 2 1 082 return v_fac format fsf here "from nemd.lmpfunc import getBdryFac"
fac=1.00166389657931
fix 4a all deform 10 x scale 1.00166389657931 y scale 1.00166389657931 z scale 1.00166389657931
fix 4b all nvt temp 300.0 300.0 0.1
run 500
Loop time of 0.04215 on 1 procs for 500 steps with 512 atoms

unfix 4a
unfix 4b

fix 5a all nvt temp 300.0 300.0 0.1
run 500
Loop time of 0.0418033 on 1 procs for 500 steps with 512 atoms

unfix 5a

next loop_id
jump SELF start_lb
loop_id=083
fix 3a all ave/time 1 20 20 c_thermo_press file 083
fix 3b all nvt temp 300.0 300.0 0.1
run 1000
Loop time of 0.096627 on 1 procs for 1000 steps with 512 atoms

unfix 3a
unfix 3b

variable fac python getBdryFac
python getBdryFac input 2 1 083 return v_fac format fsf here "from nemd.lmpfunc import getBdryFac"
fac=0.998330547813691
fix 4a all deform 10 x scale 0.998330547813691 y scale 0.998330547813691 z scale 0.998330547813691
fix 4b all nvt temp 300.0 300.0 0.1
run 500
Loop time of 0.0421756 on 1 procs for 500 steps with 512 atoms

unfix 4a
unfix 4b

fix 5a all nvt temp 300.0 300.0 0.1
run 500
Loop time of 0.0429363 on 1 procs for 500 steps with 512 atoms

unfix 5a

next loop_id
jump SELF start_lb
loop_id=084
fix 3a all ave/time 1 20 20 c_thermo_press file 084
fix 3b all nvt temp 300.0 300.0 0.1
run 1000
Loop time of 0.0998532 on 1 procs for 1000 steps with 512 atoms

unfix 3a
unfix 3b

variable fac python getBdryFac
python getBdryFac input 2 1 084 return v_fac format fsf here "from nemd.lmpfunc import getBdryFac"
fac=1.00166389657931
fix 4a all deform 10 x scale 1.00166389657931 y scale 1.00166389657931 z scale 1.00166389657931
fix 4b all nvt temp 300.0 300.0 0.1
run 500
Loop time of 0.0422646 on 1 procs for 500 steps with 512 atoms

unfix 4a
unfix 4b

fix 5a all nvt temp 300.0 300.0 0.1
run 500
Loop time of 0.0419695 on 1 procs for 500 steps with 512 atoms

unfix 5a

next loop_id
jump SELF start_lb
loop_id=085
fix 3a all ave/time 1 20 20 c_thermo_press file 085
fix 3b all nvt temp 300.0 300.0 0.1
run 1000
Loop time of 0.0961392 on 1 procs for 1000 steps with 512 atoms

unfix 3a
unfix 3b

variable fac python getBdryFac
python getBdryFac input 2 1 085 return v_fac format fsf here "from nemd.lmpfunc import getBdryFac"
fac=0.998330547813691
fix 4a all deform 10 x scale 0.998330547813691 y scale 0.998330547813691 z scale 0.998330547813691
fix 4b all nvt temp 300.0 300.0 0.1
run 500
Loop time of 0.0420161 on 1 procs for 500 steps with 512 atoms

unfix 4a
unfix 4b

fix 5a all nvt temp 300.0 300.0 0.1
run 500
Loop time of 0.0422051 on 1 procs for 500 steps with 512 atoms

unfix 5a

next loop_id
jump SELF start_lb
loop_id=086
fix 3a all ave/time 1 20 20 c_thermo_press file 086
fix 3b all nvt temp 300.0 300.0 0.1
run 1000
Loop time of 0.0997769 on 1 procs for 1000 steps with 512 atoms

unfix 3a
unfix 3b

variable fac python getBdryFac
python getBdryFac input 2 1 086 return v_fac format fsf here "from nemd.lmpfunc import getBdryFac"
fac=1.00166389657931
fix 4a all deform 10 x scale 1.00166389657931 y scale 1.00166389657931 z scale 1.00166389657931
fix 4b all nvt temp 300.0 300.0 0.1
run 500
Loop time of 0.0422417 on 1 procs for 500 steps with 512 atoms

unfix 4a
unfix 4b

fix 5a all nvt temp 300.0 300.0 0.1
run 500
Loop time of 0.0419782 on 1 procs for 500 steps with 512 atoms

unfix 5a

next loop_id
jump SELF start_lb
loop_id=087
fix 3a all ave/time 1 20 20 c_thermo_press file 087
fix 3b all nvt temp 300.0 300.0 0.1
run 1000
Loop time of 0.0984658 on 1 procs for 1000 steps with 512 atoms

unfix 3a
unfix 3b

variable fac python getBdryFac
python getBdryFac input 2 1 087 return v_fac format fsf here "from nemd.lmpfunc import getBdryFac"
fac=0.998330547813691
fix 4a all deform 10 x scale 0.998330547813691 y scale 0.998330547813691 z scale 0.998330547813691
fix 4b all nvt temp 300.0 300.0 0.1
run 500
Loop time of 0.0419838 on 1 procs for 500 steps with 512 atoms

unfix 4a
unfix 4b

fix 5a all nvt temp 300.0 300.0 0.1
run 500
Loop time of 0.0420292 on 1 procs for 500 steps with 512 atoms

unfix 5a

next loop_id
jump SELF start_lb
loop_id=088
fix 3a all ave/time 1 20 20 c_thermo_press file 088
fix 3b all nvt temp 300.0 300.0 0.1
run 1000
Loop time of 0.100016 on 1 procs for 1000 steps with 512 atoms

unfix 3a
unfix 3b

variable fac python getBdryFac
python getBdryFac input 2 1 088 return v_fac format fsf here "from nemd.lmpfunc import getBdryFac"
fac=1.00166389657931
fix 4a all deform 10 x scale 1.00166389657931 y scale 1.00166389657931 z scale 1.00166389657931
fix 4b all nvt temp 300.0 300.0 0.1
run 500
Loop time of 0.0423274 on 1 procs for 500 steps with 512 atoms

unfix 4a
unfix 4b

fix 5a all nvt temp 300.0 300.0 0.1
run 500
Loop time of 0.0417865 on 1 procs for 500 steps with 512 atoms

unfix 5a

next loop_id
jump SELF start_lb
loop_id=089
fix 3a all ave/time 1 20 20 c_thermo_press file 089
fix 3b all nvt temp 300.0 300.0 0.1
run 1000
Loop time of 0.0966524 on 1 procs for 1000 steps with 512 atoms

unfix 3a
unfix 3b

variable fac python getBdryFac
python getBdryFac input 2 1 089 return v_fac format fsf here "from nemd.lmpfunc import getBdryFac"
fac=0.998330547813691
fix 4a all deform 10 x scale 0.998330547813691 y scale 0.998330547813691 z scale 0.998330547813691
fix 4b all nvt temp 300.0 300.0 0.1
run 500
Loop time of 0.0420894 on 1 procs for 500 steps with 512 atoms

unfix 4a
unfix 4b

fix 5a all nvt temp 300.0 300.0 0.1
run 500
Loop time of 0.0418633 on 1 procs for 500 steps with 512 atoms

unfix 5a

next loop_id
jump SELF start_lb
loop_id=090
fix 3a all ave/time 1 20 20 c_thermo_press file 090
fix 3b all nvt temp 300.0 300.0 0.1
run 1000
Loop time of 0.100936 on 1 procs for 1000 steps with 512 atoms

unfix 3a
unfix 3b

variable fac python getBdryFac
python getBdryFac input 2 1 090 return v_fac format fsf here "from nemd.lmpfunc import getBdryFac"
fac=1.00166389657931
fix 4a all deform 10 x scale 1.00166389657931 y scale 1.00166389657931 z scale 1.00166389657931
fix 4b all nvt temp 300.0 300.0 0.1
run 500
Loop time of 0.0421717 on 1 procs for 500 steps with 512 atoms

unfix 4a
unfix 4b

fix 5a all nvt temp 300.0 300.0 0.1
run 500
Loop time of 0.0420942 on 1 procs for 500 steps with 512 atoms

unfix 5a

next loop_id
jump SELF start_lb
loop_id=091
fix 3a all ave/time 1 20 20 c_thermo_press file 091
fix 3b all nvt temp 300.0 300.0 0.1
run 1000
Loop time of 0.0978572 on 1 procs for 1000 steps with 512 atoms

unfix 3a
unfix 3b

variable fac python getBdryFac
python getBdryFac input 2 1 091 return v_fac format fsf here "from nemd.lmpfunc import getBdryFac"
fac=0.998330547813691
fix 4a all deform 10 x scale 0.998330547813691 y scale 0.998330547813691 z scale 0.998330547813691
fix 4b all nvt temp 300.0 300.0 0.1
run 500
Loop time of 0.0430651 on 1 procs for 500 steps with 512 atoms

unfix 4a
unfix 4b

fix 5a all nvt temp 300.0 300.0 0.1
run 500
Loop time of 0.0421734 on 1 procs for 500 steps with 512 atoms

unfix 5a

next loop_id
jump SELF start_lb
loop_id=092
fix 3a all ave/time 1 20 20 c_thermo_press file 092
fix 3b all nvt temp 300.0 300.0 0.1
run 1000
Loop time of 0.100729 on 1 procs for 1000 steps with 512 atoms

unfix 3a
unfix 3b

variable fac python getBdryFac
python getBdryFac input 2 1 092 return v_fac format fsf here "from nemd.lmpfunc import getBdryFac"
fac=1.00166389657931
fix 4a all deform 10 x scale 1.00166389657931 y scale 1.00166389657931 z scale 1.00166389657931
fix 4b all nvt temp 300.0 300.0 0.1
run 500
Loop time of 0.0421052 on 1 procs for 500 steps with 512 atoms

unfix 4a
unfix 4b

fix 5a all nvt temp 300.0 300.0 0.1
run 500
Loop time of 0.0416228 on 1 procs for 500 steps with 512 atoms

unfix 5a

next loop_id
jump SELF start_lb
loop_id=093
fix 3a all ave/time 1 20 20 c_thermo_press file 093
fix 3b all nvt temp 300.0 300.0 0.1
run 1000
Loop time of 0.0984945 on 1 procs for 1000 steps with 512 atoms

unfix 3a
unfix 3b

variable fac python getBdryFac
python getBdryFac input 2 1 093 return v_fac format fsf here "from nemd.lmpfunc import getBdryFac"
fac=1
fix 4a all deform 10 x scale 1 y scale 1 z scale 1
fix 4b all nvt temp 300.0 300.0 0.1
run 500
Loop time of 0.0421454 on 1 procs for 500 steps with 512 atoms

unfix 4a
unfix 4b

fix 5a all nvt temp 300.0 300.0 0.1
run 500
Loop time of 0.0420516 on 1 procs for 500 steps with 512 atoms

unfix 5a

jump SELF break_lb
variable loop_id delete
variable fac delete

shell cd ..

fix 6a all nvt temp 300.0 300.0 0.1
run 100000
Loop time of 8.38456 on 1 procs for 100000 steps with 512 atoms

unfix 6a

variable xl equal "xhi - xlo"
variable yl equal "yhi - ylo"
variable zl equal "zhi - zlo"
fix 7a all ave/time 1 100000 100000 v_xl v_yl v_zl file xyz
fix 7b all npt temp 300.0 300.0 100 iso 1 1 1.0
run 1000000
Loop time of 105.326 on 1 procs for 1000000 steps with 512 atoms

unfix 7a
unfix 7b

Final: xl=21.7396721339346 yl=21.7396721339346 zl=21.7396721339346
variable ave_x python getXL
python getXL input 1 xyz return v_ave_x format sf here "from nemd.lmpfunc import getXL"
variable ave_y python getYL
python getYL input 1 xyz return v_ave_y format sf here "from nemd.lmpfunc import getYL"
variable ave_z python getZL
python getZL input 1 xyz return v_ave_z format sf here "from nemd.lmpfunc import getZL"
Averaged: ave_x=21.7495 ave_y=21.7495 ave_z=21.7495
change_box all x scale $(v_ave_x / v_xl) y scale $(v_ave_y / v_yl) z scale $(v_ave_z / v_zl) remap
change_box all x scale 1.0004520705742410147 y scale $(v_ave_y / v_yl) z scale $(v_ave_z / v_zl) remap
change_box all x scale 1.0004520705742410147 y scale 1.0004520705742410147 z scale $(v_ave_z / v_zl) remap
change_box all x scale 1.0004520705742410147 y scale 1.0004520705742410147 z scale 1.0004520705742410147 remap
Changing box ...
  triclinic box = (-0.01335 -0.008436067 -0.008436067) to (21.73615 21.731236 21.731236) with tilt (0 0 0)
  triclinic box = (-0.01335 -0.01335 -0.008436067) to (21.73615 21.73615 21.731236) with tilt (0 0 0)
  triclinic box = (-0.01335 -0.01335 -0.01335) to (21.73615 21.73615 21.73615) with tilt (0 0 0)
variable xl delete
variable yl delete
variable zl delete
variable ave_x delete
variable ave_y delete
variable ave_z delete
fix 8a all nvt temp 300.0 300.0 0.1
run 10000
Loop time of 0.834189 on 1 procs for 10000 steps with 512 atoms

unfix 8a
undump 1

dump 1 all xtc 1000 xtal_bldr_01.xtc
dump_modify 1 unwrap yes
fix 9a all nve
run 1000000
Loop time of 80.037 on 1 procs for 1000000 steps with 512 atoms

unfix 9a
undump 1

write_restart xtal_bldr.rst
System init for write_restart ...
