LAMMPS (19 Nov 2024)
units real
atom_style full
bond_style harmonic
angle_style harmonic
dihedral_style opls
improper_style cvff
special_bonds lj/coul 0 0 0.5
pair_style lj/cut 11.0
pair_modify mix geometric
read_data amorp_bldr.data
Reading data file ...
  orthogonal box = (0 0 0) to (73.9549 73.9549 73.9549)
  reading atoms ...
  10 atoms
Finding 1-2 1-3 1-4 neighbors ...
     0 = max # of 1-2 neighbors
     0 = max # of 1-3 neighbors
     0 = max # of 1-4 neighbors
     1 = max # of special neighbors

dump 1 all custom 1000 amorp_bldr.custom.gz id xu yu zu
dump_modify 1 sort id
min_style fire
minimize 1.0e-6 1.0e-8 1000000 10000000
Generated 0 of 0 mixed pair_coeff terms from geometric mixing rule
  Parameters for fire:
    dmax  delaystep dtgrow dtshrink alpha0 alphashrink tmax tmin   integrator   halfstepback   abcfire
     0.1     20      1.1     0.5     0.25     0.99      10  0.02 eulerimplicit      yes          no
Step          Temp          E_pair         E_mol          TotEng         Press
0   0             -0.056174429    0             -0.056174429   -0.017955047
Loop time of 0.00109115 on 1 procs for 999 steps with 10 atoms

Minimization stats:
  Stopping criterion = energy tolerance
  Energy initial, next-to-last, final =
  Force two-norm initial, final = 0.07518201 0.00063612971
  Force max component initial, final = 0.052720841 0.00038116011
  Final line search alpha, max atom move = 0 0
  Iterations, force evaluations = 999 1002

timestep 1.0
thermo_modify flush yes
thermo 1000
velocity all create 300 1087088898
fix 2a all temp/berendsen 300 300 100
fix 2b all nve
run 5000
Generated 0 of 0 mixed pair_coeff terms from geometric mixing rule
Step          Temp          E_pair         E_mol          TotEng         Press
999   300           -0.46799991     0              7.5801872      0.9096543
Loop time of 0.00566665 on 1 procs for 5000 steps with 10 atoms

unfix 2b
unfix 2a

quit 0
