LAMMPS (29 Aug 2024 - Development - patch_29Aug2024-451-g5322b172bd)
units real
atom_style full
bond_style harmonic
angle_style harmonic
dihedral_style opls
improper_style cvff
special_bonds lj/coul 0 0 0.5
pair_style lj/cut 11.0
pair_modify mix geometric
read_data ar100.data
Reading data file ...
  orthogonal box = (0 0 0) to (160.6478 160.6478 160.6478)
  reading atoms ...
  100 atoms
Finding 1-2 1-3 1-4 neighbors ...
     0 = max # of 1-2 neighbors
     0 = max # of 1-3 neighbors
     0 = max # of 1-4 neighbors
     1 = max # of special neighbors

dump 1 all custom 1000 ar100.custom.gz id xu yu zu
dump_modify 1 sort id
min_style fire
minimize 1.0e-6 1.0e-8 1000000 10000000

CITE-CITE-CITE-CITE-CITE-CITE-CITE-CITE-CITE-CITE-CITE-CITE-CITE

Your simulation uses code contributions which should be cited:

- Type Label Framework: https://doi.org/10.1021/acs.jpcb.3c08419

@Article{Gissinger24,
 author = {Jacob R. Gissinger, Ilia Nikiforov, Yaser Afshar, Brendon Waters, Moon-ki Choi, Daniel S. Karls, Alexander Stukowski, Wonpil Im, Hendrik Heinz, Axel Kohlmeyer, and Ellad B. Tadmor},
 title = {Type Label Framework for Bonded Force Fields in LAMMPS},
 journal = {J. Phys. Chem. B},
 year =    2024,
 volume =  128,
 number =  13,
 pages =   {3282--3297}
}

CITE-CITE-CITE-CITE-CITE-CITE-CITE-CITE-CITE-CITE-CITE-CITE-CITE

Generated 0 of 0 mixed pair_coeff terms from geometric mixing rule
  Parameters for fire:
    dmax  delaystep dtgrow dtshrink alpha0 alphashrink tmax tmin   integrator   halfstepback   abcfire
     0.1     20      1.1     0.5     0.25     0.99      10  0.02 eulerimplicit      yes          no
Step          Temp          E_pair         E_mol          TotEng         Press
0   0             -0.28419393     0             -0.28419393    -0.0065441976
Loop time of 0.00543356 on 1 procs for 1704 steps with 100 atoms

Minimization stats:
  Stopping criterion = energy tolerance
  Energy initial, next-to-last, final =
  Force two-norm initial, final = 0.24967166 0.0035038359
  Force max component initial, final = 0.11572364 0.0016960463
  Final line search alpha, max atom move = 0 0
  Iterations, force evaluations = 1704 1710

timestep 1.0
thermo_modify flush yes
thermo 1000
velocity all create 10 6
fix 2a all temp/berendsen 10 10 100
fix 2b all nve
run 100
Generated 0 of 0 mixed pair_coeff terms from geometric mixing rule
Step          Temp          E_pair         E_mol          TotEng         Press
1704   10            -1.4122721      0              1.5387299      0.032245416
Loop time of 0.000268207 on 1 procs for 100 steps with 100 atoms

unfix 2b
unfix 2a

fix 3a all temp/berendsen 10 300 100
fix 3b all nve
run 5000
Generated 0 of 0 mixed pair_coeff terms from geometric mixing rule
Step          Temp          E_pair         E_mol          TotEng         Press
1804   9.967444      -1.3990188      0              1.5423759      0.037311134
Loop time of 0.0137872 on 1 procs for 5000 steps with 100 atoms

unfix 3b
unfix 3a

fix 4a all temp/berendsen 300 300 100
fix 4b all nve
run 5000
Generated 0 of 0 mixed pair_coeff terms from geometric mixing rule
Step          Temp          E_pair         E_mol          TotEng         Press
6804   294.20707     -1.0482481      0              85.772315      0.93884921
Loop time of 0.0135302 on 1 procs for 5000 steps with 100 atoms

unfix 4b
unfix 4a

dump_modify 1 every 4000

variable vol equal vol
variable amp equal 0.01*v_vol^(1/3)
variable immed_press python getPress
python getPress input 1 press_vol.data return v_immed_press format sf here "from nemd.lmpfunc import getPress"

variable immed_modulus python getModulus
python getModulus input 2 press_vol.data 100 return v_immed_modulus format sif here "from nemd.lmpfunc import getModulus"

variable factor python getBdryFactor
python getBdryFactor input 2 1 press_vol.data return v_factor format fsf here "from nemd.lmpfunc import getBdryFactor"

variable defm_id loop 0 999 pad
label defm_start
defm_id = 000
shell mkdir defm_000
shell cd defm_000

fix 17a all ave/time 1 10 10 c_thermo_press v_vol file press_vol.data
fix 17b all deform 100 x wiggle 1.606478 1000 y wiggle 1.606478 1000 z wiggle 1.606478 1000
fix 17c all temp/berendsen 300 300 100
fix 17d all nve
run 3000
Generated 0 of 0 mixed pair_coeff terms from geometric mixing rule
Step          Temp          E_pair         E_mol          TotEng         Press          Volume
11804   300.01828     -0.80553708     0              87.729917      0.97728493     4145952.7
Loop time of 0.0148195 on 1 procs for 3000 steps with 100 atoms

unfix 17d
unfix 17c
unfix 17b
unfix 17a

immed_press = 0.968956953177258
immed_modulus = 10
factor = 0.992635080098149

fix 23a all deform 100 x scale 0.992635080098149 y scale 0.992635080098149 z scale 0.992635080098149 remap v
fix 23b all temp/berendsen 300 300 100
fix 23c all nve
run 500
Generated 0 of 0 mixed pair_coeff terms from geometric mixing rule
Step          Temp          E_pair         E_mol          TotEng         Press          Volume
14804   300.01103     -0.71332559     0              87.819987      0.97465986     4142827.9
Loop time of 0.0013834 on 1 procs for 500 steps with 100 atoms

unfix 23c
unfix 23b
unfix 23a

fix 24a all temp/berendsen 300 300 100
fix 24b all nve
run 500
Generated 0 of 0 mixed pair_coeff terms from geometric mixing rule
Step          Temp          E_pair         E_mol          TotEng         Press
15304   300.81946     -0.76194413     0              88.009938      0.98981278
Loop time of 0.00129912 on 1 procs for 500 steps with 100 atoms

unfix 24b
unfix 24a

shell cd ..
next defm_id
jump SELF defm_start
defm_id = 001
shell mkdir defm_001
shell cd defm_001

fix 17a all ave/time 1 10 10 c_thermo_press v_vol file press_vol.data
fix 17b all deform 100 x wiggle 1.59434031090709 1000 y wiggle 1.59434031090709 1000 z wiggle 1.59434031090709 1000
fix 17c all temp/berendsen 300 300 100
fix 17d all nve
run 3000
Generated 0 of 0 mixed pair_coeff terms from geometric mixing rule
Step          Temp          E_pair         E_mol          TotEng         Press          Volume
15804   299.96301     -0.64559592     0              87.873548      0.99052871     4052687.2
Loop time of 0.0147257 on 1 procs for 3000 steps with 100 atoms

unfix 17d
unfix 17c
unfix 17b
unfix 17a

immed_press = 0.993849351170569
immed_modulus = 10
factor = 1
jump SELF defm_break
variable modulus equal 10
variable press equal 0.993849351170569
shell cd ..
variable vol delete
variable amp delete
variable immed_press delete
variable immed_modulus delete
variable factor delete
variable defm_id delete

dump_modify 1 every 1000

fix 40a all temp/berendsen 300 300 100
fix 40b all nve
run 10000
Generated 0 of 0 mixed pair_coeff terms from geometric mixing rule
Step          Temp          E_pair         E_mol          TotEng         Press
18804   299.92477     -0.60957345     0              87.898284      0.99253773
Averages over the last 6 of 12 rows, steps 24000 to 28804:
Temp E_pair E_mol TotEng Press
299.816 -0.658406 0 87.8174 1.00272
Loop time of 0.0272086 on 1 procs for 10000 steps with 100 atoms

unfix 40b
unfix 40a

fix 41a all press/berendsen iso 0.993849351170569 1 1000 modulus 10
fix 41b all temp/berendsen 300 300 100
fix 41c all nve
run 10000
Generated 0 of 0 mixed pair_coeff terms from geometric mixing rule
Step          Temp          E_pair         E_mol          TotEng         Press          Volume
28804   299.95553     -0.81012992     0              87.706805      0.99925414     4049632.6
Averages over the last 6 of 12 rows, steps 34000 to 38804:
Temp E_pair E_mol TotEng Press Volume
299.988 -0.781811 0 87.7446 0.993879 4.04678e+06
Loop time of 0.0409052 on 1 procs for 10000 steps with 100 atoms

unfix 41c
unfix 41b
unfix 41a

variable xl equal "xhi - xlo"
variable yl equal "yhi - ylo"
variable zl equal "zhi - zlo"
fix 42a all ave/time 1 1000 1000 v_xl v_yl v_zl file xyzl.data
fix 42b all press/berendsen iso 1.0 1 1000 modulus 10
fix 42c all temp/berendsen 300 300 100
fix 42d all nve
run 100000
Generated 0 of 0 mixed pair_coeff terms from geometric mixing rule
Step          Temp          E_pair         E_mol          TotEng         Press          Volume
38804   299.94774     -0.68621818     0              87.828419      0.98851084     4044753.3
Averages over the last 51 of 102 rows, steps 89000 to 138804:
Temp E_pair E_mol TotEng Press Volume
299.981 -0.555803 0 87.9687 1.00079 4.04048e+06
Loop time of 0.745802 on 1 procs for 100000 steps with 100 atoms

unfix 42d
unfix 42c
unfix 42b
unfix 42a

Final Boundary: xl = 159.348805566119, yl = 159.348805566119, zl = 159.348805566119
variable ave_xl python getXL
python getXL input 1 xyzl.data return v_ave_xl format sf here "from nemd.lmpfunc import getXL"
variable ave_yl python getYL
python getYL input 1 xyzl.data return v_ave_yl format sf here "from nemd.lmpfunc import getYL"
variable ave_zl python getZL
python getZL input 1 xyzl.data return v_ave_zl format sf here "from nemd.lmpfunc import getZL"
Averaged  xl = 159.3289 yl = 159.3289 zl = 159.3289

variable ave_xr equal "v_ave_xl / v_xl"
variable ave_yr equal "v_ave_yl / v_yl"
variable ave_zr equal "v_ave_zl / v_zl"
change_box all x scale 0.999875081799024 y scale 0.999875081799024 z scale 0.999875081799024 remap
Changing box ...
  orthogonal box = (0.65945 0.64949722 0.64949722) to (159.98835 159.9983 159.9983)
  orthogonal box = (0.65945 0.65945 0.64949722) to (159.98835 159.98835 159.9983)
  orthogonal box = (0.65945 0.65945 0.65945) to (159.98835 159.98835 159.98835)
variable ave_xr delete
variable ave_yr delete
variable ave_zr delete
variable ave_xl delete
variable ave_yl delete
variable ave_zl delete
variable xl delete
variable yl delete
variable zl delete

fix 44a all temp/berendsen 300 300 100
fix 44b all nve
run 1000
Generated 0 of 0 mixed pair_coeff terms from geometric mixing rule
Step          Temp          E_pair         E_mol          TotEng         Press
138804   299.95436     -0.65014449     0              87.866445      0.99311749
Loop time of 0.00282062 on 1 procs for 1000 steps with 100 atoms

unfix 44b
unfix 44a

fix 45a all nve
run 100000
Generated 0 of 0 mixed pair_coeff terms from geometric mixing rule
Step          Temp          E_pair         E_mol          TotEng         Press
139804   299.97036     -0.69448554     0              87.826825      1.0062695
Averages over the last 51 of 102 rows, steps 190000 to 239804:
Temp E_pair E_mol TotEng Press
299.051 -0.422227 0 87.8277 0.995988
Loop time of 0.24518 on 1 procs for 100000 steps with 100 atoms

unfix 45a

quit 0
