LAMMPS (29 Aug 2024 - Development - patch_29Aug2024-451-g5322b172bd)
units real
atom_style full
bond_style harmonic
angle_style harmonic
dihedral_style opls
improper_style cvff
pair_style lj/cut 11.0
pair_modify mix geometric
special_bonds lj/coul 0 0 0.5
read_data polymer_builder.data
Reading data file ...
  orthogonal box = (0 0 0) to (44.7207 44.7207 44.7207)
  reading atoms ...
  3000 atoms
  scanning bonds ...
  scanning angles ...
  scanning dihedrals ...
  orthogonal box = (0 0 0) to (44.7207 44.7207 44.7207)
  reading bonds ...
  2500 bonds
  reading angles ...
  2000 angles
  reading dihedrals ...
  1500 dihedrals
Finding 1-2 1-3 1-4 neighbors ...
     2 = max # of 1-2 neighbors
     2 = max # of 1-3 neighbors
     3 = max # of 1-4 neighbors
     5 = max # of special neighbors

timestep 1
thermo_modify flush yes
thermo 1000
dump 1 all custom 1000 dump.custom.gz id xu yu zu
dump_modify 1 sort id
min_style fire
minimize 1.0e-6 1.0e-8 1000000 10000000

CITE-CITE-CITE-CITE-CITE-CITE-CITE-CITE-CITE-CITE-CITE-CITE-CITE

Your simulation uses code contributions which should be cited:

- Type Label Framework: https://doi.org/10.1021/acs.jpcb.3c08419

@Article{Gissinger24,
 author = {Jacob R. Gissinger, Ilia Nikiforov, Yaser Afshar, Brendon Waters, Moon-ki Choi, Daniel S. Karls, Alexander Stukowski, Wonpil Im, Hendrik Heinz, Axel Kohlmeyer, and Ellad B. Tadmor},
 title = {Type Label Framework for Bonded Force Fields in LAMMPS},
 journal = {J. Phys. Chem. B},
 year =    2024,
 volume =  128,
 number =  13,
 pages =   {3282--3297}
}

CITE-CITE-CITE-CITE-CITE-CITE-CITE-CITE-CITE-CITE-CITE-CITE-CITE

Generated 1 of 1 mixed pair_coeff terms from geometric mixing rule
  Parameters for fire:
    dmax  delaystep dtgrow dtshrink alpha0 alphashrink tmax tmin   integrator   halfstepback   abcfire
     0.1     20      1.1     0.5     0.25     0.99      10  0.02 eulerimplicit      yes          no
Step          Temp          E_pair         E_mol          TotEng         Press
0   0              951591.43      3135.108       954726.54      2988313.7
Loop time of 28.2246 on 1 procs for 3527 steps with 3000 atoms

Minimization stats:
  Stopping criterion = energy tolerance
  Energy initial, next-to-last, final =
  Force two-norm initial, final = 330964.84 28.451225
  Force max component initial, final = 31991.934 8.2945001
  Final line search alpha, max atom move = 0 0
  Iterations, force evaluations = 3527 3720

velocity all create 10 836689
fix 1a all temp/berendsen 10 10 100
fix 1b all nve
run 1000
Generated 1 of 1 mixed pair_coeff terms from geometric mixing rule
Step          Temp          E_pair         E_mol          TotEng         Press
3527   10            -3605.7799      1021.7241     -2494.6614      132.52527
Loop time of 5.03473 on 1 procs for 1000 steps with 3000 atoms

unfix 1b
unfix 1a

fix 2a all temp/berendsen 10 300 100
fix 2b all nve
run 10000
Generated 1 of 1 mixed pair_coeff terms from geometric mixing rule
Step          Temp          E_pair         E_mol          TotEng         Press
4527   10.661562     -3657.8526      1060.9527     -2501.5914     -240.04583
Averages over the last 6 of 12 rows, steps 10000 to 14527:
Temp E_pair E_mol TotEng Press
235.299 -3271.59 1717.3 549.158 3845.37
Loop time of 52.8729 on 1 procs for 10000 steps with 3000 atoms

unfix 2b
unfix 2a

dump_modify 1 every 10000

variable vol equal vol
variable amp equal 0.01*v_vol^(1/3)
variable immed_press python getPress
python getPress input 1 press_vol.data return v_immed_press format sf here "from nemd.lmpfunc import getPress"

variable immed_modulus python getModulus
python getModulus input 2 press_vol.data 100 return v_immed_modulus format sif here "from nemd.lmpfunc import getModulus"

variable factor python getBdryFactor
python getBdryFactor input 2 1 press_vol.data return v_factor format fsf here "from nemd.lmpfunc import getBdryFactor"

variable defm_id loop 0 99 pad
label defm_start
defm_id = 00
shell mkdir defm_00
shell cd defm_00

fix 15a all ave/time 1 25 25 c_thermo_press v_vol file press_vol.data
fix 15b all deform 100 x wiggle 0.447207 2500 y wiggle 0.447207 2500 z wiggle 0.447207 2500
fix 15c all temp/berendsen 300 300 100
fix 15d all nve
run 7500
Generated 1 of 1 mixed pair_coeff terms from geometric mixing rule
Step          Temp          E_pair         E_mol          TotEng         Press          Volume
14527   295.95519     -3333.8055      1988.0984      1299.9694      4795.7515      89438.762
Averages over the last 5 of 10 rows, steps 19000 to 22027:
Temp E_pair E_mol TotEng Press Volume
300.575 -3676.97 1786.39 796.391 5126.03 89069.5
Loop time of 40.8666 on 1 procs for 7500 steps with 3000 atoms

unfix 15d
unfix 15c
unfix 15b
unfix 15a

immed_press = 4778.28548494983
immed_modulus = 53140.4249752087
factor = 1.01231428059862

fix 21a all deform 100 x scale 1.01231428059862 y scale 1.01231428059862 z scale 1.01231428059862 remap v
fix 21b all temp/berendsen 300 300 100
fix 21c all nve
run 1250
Generated 1 of 1 mixed pair_coeff terms from geometric mixing rule
Step          Temp          E_pair         E_mol          TotEng         Press          Volume
22027   297.60245     -3731.2509      1769.4857      698.63681      6086.5941      89256.95
Loop time of 6.64907 on 1 procs for 1250 steps with 3000 atoms

unfix 21c
unfix 21b
unfix 21a

fix 22a all temp/berendsen 300 300 100
fix 22b all nve
run 1250
Generated 1 of 1 mixed pair_coeff terms from geometric mixing rule
Step          Temp          E_pair         E_mol          TotEng         Press
23277   296.53287     -3789.2881      1860.8485      722.40092      1827.2709
Loop time of 6.55028 on 1 procs for 1250 steps with 3000 atoms

unfix 22b
unfix 22a

shell cd ..
next defm_id
jump SELF defm_start
defm_id = 01
shell mkdir defm_01
shell cd defm_01

fix 15a all ave/time 1 25 25 c_thermo_press v_vol file press_vol.data
fix 15b all deform 100 x wiggle 0.452068060512316 2500 y wiggle 0.452068060512316 2500 z wiggle 0.452068060512316 2500
fix 15c all temp/berendsen 300 300 100
fix 15d all nve
run 7500
Generated 1 of 1 mixed pair_coeff terms from geometric mixing rule
Step          Temp          E_pair         E_mol          TotEng         Press          Volume
24527   303.19822     -3770.2074      1798.4859      738.70359      4420.2362      92387.129
Averages over the last 5 of 10 rows, steps 29000 to 32027:
Temp E_pair E_mol TotEng Press Volume
300.475 -3838.57 1799.69 647.208 3577.71 92005.7
Loop time of 40.1055 on 1 procs for 7500 steps with 3000 atoms

unfix 15d
unfix 15c
unfix 15b
unfix 15a

immed_press = 3193.10989966555
immed_modulus = 41633.7996785157
factor = 1.01231416912463

fix 21a all deform 100 x scale 1.01231416912463 y scale 1.01231416912463 z scale 1.01231416912463 remap v
fix 21b all temp/berendsen 300 300 100
fix 21c all nve
run 1250
Generated 1 of 1 mixed pair_coeff terms from geometric mixing rule
Step          Temp          E_pair         E_mol          TotEng         Press          Volume
32027   300.63163     -3924.659       1870.3252      633.14748      4505.4241      92199.324
Loop time of 6.46899 on 1 procs for 1250 steps with 3000 atoms

unfix 21c
unfix 21b
unfix 21a

fix 22a all temp/berendsen 300 300 100
fix 22b all nve
run 1250
Generated 1 of 1 mixed pair_coeff terms from geometric mixing rule
Step          Temp          E_pair         E_mol          TotEng         Press
33277   301.16296     -3815.8088      1906.0008      782.42304      84.014421
Loop time of 6.29317 on 1 procs for 1250 steps with 3000 atoms

unfix 22b
unfix 22a

shell cd ..
next defm_id
jump SELF defm_start
defm_id = 02
shell mkdir defm_02
shell cd defm_02

fix 15a all ave/time 1 25 25 c_thermo_press v_vol file press_vol.data
fix 15b all deform 100 x wiggle 0.456981912629901 2500 y wiggle 0.456981912629901 2500 z wiggle 0.456981912629901 2500
fix 15c all temp/berendsen 300 300 100
fix 15d all nve
run 7500
Generated 1 of 1 mixed pair_coeff terms from geometric mixing rule
Step          Temp          E_pair         E_mol          TotEng         Press          Volume
34527   297.50006     -3827.4197      1891.0931      723.16007      3581.8976      95432.661
Averages over the last 5 of 10 rows, steps 39000 to 42027:
Temp E_pair E_mol TotEng Press Volume
301.466 -3841 1816.9 670.838 2574.48 95038.6
Loop time of 38.4449 on 1 procs for 7500 steps with 3000 atoms

unfix 15d
unfix 15c
unfix 15b
unfix 15a

immed_press = 2114.40043110368
immed_modulus = 34936.4576621494
factor = 1.01231404444088

fix 21a all deform 100 x scale 1.01231404444088 y scale 1.01231404444088 z scale 1.01231404444088 remap v
fix 21b all temp/berendsen 300 300 100
fix 21c all nve
run 1250
Generated 1 of 1 mixed pair_coeff terms from geometric mixing rule
Step          Temp          E_pair         E_mol          TotEng         Press          Volume
42027   299.76426     -3895.8911      1832.7921      616.62842      3687.6594      95238.664
Loop time of 5.98548 on 1 procs for 1250 steps with 3000 atoms

unfix 21c
unfix 21b
unfix 21a

fix 22a all temp/berendsen 300 300 100
fix 22b all nve
run 1250
Generated 1 of 1 mixed pair_coeff terms from geometric mixing rule
Step          Temp          E_pair         E_mol          TotEng         Press
43277   301.05677     -3809.3405      1916.8922      798.83343     -695.05993
Loop time of 5.91955 on 1 procs for 1250 steps with 3000 atoms

unfix 22b
unfix 22a

shell cd ..
next defm_id
jump SELF defm_start
defm_id = 03
shell mkdir defm_03
shell cd defm_03

fix 15a all ave/time 1 25 25 c_thermo_press v_vol file press_vol.data
fix 15b all deform 100 x wiggle 0.461949123499834 2500 y wiggle 0.461949123499834 2500 z wiggle 0.461949123499834 2500
fix 15c all temp/berendsen 300 300 100
fix 15d all nve
run 7500
Generated 1 of 1 mixed pair_coeff terms from geometric mixing rule
Step          Temp          E_pair         E_mol          TotEng         Press          Volume
44527   296.68076     -3780.9845      1914.7512      785.92925      2541.6376      98578.554
Averages over the last 5 of 10 rows, steps 49000 to 52027:
Temp E_pair E_mol TotEng Press Volume
300.231 -3804.21 1845.81 725.495 1667.35 98171.5
Loop time of 37.0787 on 1 procs for 7500 steps with 3000 atoms

unfix 15d
unfix 15c
unfix 15b
unfix 15a

immed_press = 1292.18028361204
immed_modulus = 29642.6612293674
factor = 1.01231494738922

fix 21a all deform 100 x scale 1.01231494738922 y scale 1.01231494738922 z scale 1.01231494738922 remap v
fix 21b all temp/berendsen 300 300 100
fix 21c all nve
run 1250
Generated 1 of 1 mixed pair_coeff terms from geometric mixing rule
Step          Temp          E_pair         E_mol          TotEng         Press          Volume
52027   300.37363     -3854.6704      1849.4418      679.94625      2886.8658      98378.162
Loop time of 5.97427 on 1 procs for 1250 steps with 3000 atoms

unfix 21c
unfix 21b
unfix 21a

fix 22a all temp/berendsen 300 300 100
fix 22b all nve
run 1250
Generated 1 of 1 mixed pair_coeff terms from geometric mixing rule
Step          Temp          E_pair         E_mol          TotEng         Press
53277   299.17395     -3750.5036      1952.8805      876.82728     -1476.2904
Loop time of 5.8611 on 1 procs for 1250 steps with 3000 atoms

unfix 22b
unfix 22a

shell cd ..
next defm_id
jump SELF defm_start
defm_id = 04
shell mkdir defm_04
shell cd defm_04

fix 15a all ave/time 1 25 25 c_thermo_press v_vol file press_vol.data
fix 15b all deform 100 x wiggle 0.466970717124428 2500 y wiggle 0.466970717124428 2500 z wiggle 0.466970717124428 2500
fix 15c all temp/berendsen 300 300 100
fix 15d all nve
run 7500
Generated 1 of 1 mixed pair_coeff terms from geometric mixing rule
Step          Temp          E_pair         E_mol          TotEng         Press          Volume
54527   301.4602      -3748.9696      1921.9901      867.90878      2322.3171      101828.41
Averages over the last 5 of 10 rows, steps 59000 to 62027:
Temp E_pair E_mol TotEng Press Volume
300.729 -3763.99 1893.57 817.937 1068.84 101408
Loop time of 35.8055 on 1 procs for 7500 steps with 3000 atoms

unfix 15d
unfix 15c
unfix 15b
unfix 15a

immed_press = 588.857154648829
immed_modulus = 23718.2747109664
factor = 1.01231380808451

fix 21a all deform 100 x scale 1.01231380808451 y scale 1.01231380808451 z scale 1.01231380808451 remap v
fix 21b all temp/berendsen 300 300 100
fix 21c all nve
run 1250
Generated 1 of 1 mixed pair_coeff terms from geometric mixing rule
Step          Temp          E_pair         E_mol          TotEng         Press          Volume
62027   302.14462     -3778.8771      1875.145       797.27437      2120.4015      101621.41
Loop time of 5.73246 on 1 procs for 1250 steps with 3000 atoms

unfix 21c
unfix 21b
unfix 21a

fix 22a all temp/berendsen 300 300 100
fix 22b all nve
run 1250
Generated 1 of 1 mixed pair_coeff terms from geometric mixing rule
Step          Temp          E_pair         E_mol          TotEng         Press
63277   297.33318     -3646.8012      2009.5878      1020.7816     -2036.2433
Loop time of 5.74455 on 1 procs for 1250 steps with 3000 atoms

unfix 22b
unfix 22a

shell cd ..
next defm_id
jump SELF defm_start
defm_id = 05
shell mkdir defm_05
shell cd defm_05

fix 15a all ave/time 1 25 25 c_thermo_press v_vol file press_vol.data
fix 15b all deform 100 x wiggle 0.472046398807258 2500 y wiggle 0.472046398807258 2500 z wiggle 0.472046398807258 2500
fix 15c all temp/berendsen 300 300 100
fix 15d all nve
run 7500
Generated 1 of 1 mixed pair_coeff terms from geometric mixing rule
Step          Temp          E_pair         E_mol          TotEng         Press          Volume
64527   302.34786     -3656.1996      1959.8064      1006.4301      1806.3556      105185.06
Averages over the last 5 of 10 rows, steps 69000 to 72027:
Temp E_pair E_mol TotEng Press Volume
298.247 -3695.95 1952.84 923.049 664.998 104751
Loop time of 35.0306 on 1 procs for 7500 steps with 3000 atoms

unfix 15d
unfix 15c
unfix 15b
unfix 15a

immed_press = 155.704759668896
immed_modulus = 20773.1331131101
factor = 1.01231446334489

fix 21a all deform 100 x scale 1.01231446334489 y scale 1.01231446334489 z scale 1.01231446334489 remap v
fix 21b all temp/berendsen 300 300 100
fix 21c all nve
run 1250
Generated 1 of 1 mixed pair_coeff terms from geometric mixing rule
Step          Temp          E_pair         E_mol          TotEng         Press          Volume
72027   302.33245     -3711.5294      1921.8256      912.98177      1899.585       104971.24
Loop time of 5.51336 on 1 procs for 1250 steps with 3000 atoms

unfix 21c
unfix 21b
unfix 21a

fix 22a all temp/berendsen 300 300 100
fix 22b all nve
run 1250
Generated 1 of 1 mixed pair_coeff terms from geometric mixing rule
Step          Temp          E_pair         E_mol          TotEng         Press
73277   298.27081     -3602.4661      2059.7572      1123.6679     -1823.7051
Loop time of 5.3933 on 1 procs for 1250 steps with 3000 atoms

unfix 22b
unfix 22a

shell cd ..
next defm_id
jump SELF defm_start
defm_id = 06
shell mkdir defm_06
shell cd defm_06

fix 15a all ave/time 1 25 25 c_thermo_press v_vol file press_vol.data
fix 15b all deform 100 x wiggle 0.477177540060516 2500 y wiggle 0.477177540060516 2500 z wiggle 0.477177540060516 2500
fix 15c all temp/berendsen 300 300 100
fix 15d all nve
run 7500
Generated 1 of 1 mixed pair_coeff terms from geometric mixing rule
Step          Temp          E_pair         E_mol          TotEng         Press          Volume
74527   297.69231     -3579.6599      2045.4174      1126.9628      1300.8826      108652.56
Averages over the last 5 of 10 rows, steps 79000 to 82027:
Temp E_pair E_mol TotEng Press Volume
300.588 -3574.47 1950.61 1063.23 38.2783 108204
Loop time of 34.2683 on 1 procs for 7500 steps with 3000 atoms

unfix 15d
unfix 15c
unfix 15b
unfix 15a

immed_press = -180.465860334448
immed_modulus = 19644.6841503296
factor = 1
jump SELF defm_break
variable modulus equal 19644.6841503296
variable press equal -180.465860334448
shell cd ..
variable vol delete
variable amp delete
variable immed_press delete
variable immed_modulus delete
variable factor delete
variable defm_id delete

dump_modify 1 every 1000

fix 38a all press/berendsen iso -180.465860334448 1 1000 modulus 19644.6841503296
fix 38b all temp/berendsen 300 300 100
fix 38c all nve
run 60000
Generated 1 of 1 mixed pair_coeff terms from geometric mixing rule
Step          Temp          E_pair         E_mol          TotEng         Press          Volume
82027   301.11406     -3578.5361      1944.8786      1058.1364      1344.2009      108431.69
Averages over the last 13 of 25 rows, steps 94000 to 106000:
Temp E_pair E_mol TotEng Press Volume
299.514 -3523.73 1948.89 1102.65 -224.555 109576
